@<TRIPOS>MOLECULE
Adenosine
71 73
SMALL
NO_CHARGES
@<TRIPOS>ATOM
1	H1    -7.9580     1.4520     0.1140	H
2	H2    -6.1030    -0.2220     0.1060	H
3	H3    -4.3470    -1.7300     0.5100	H
4	N1     5.5200     2.7960     2.1670	N
5	H4     5.7240     2.5080     3.1260	H
6	H5     4.5120     2.9760     2.1140	H
7	N2     6.0530    -0.3610    -0.2210	N
8	C1     7.0510     0.1650     0.4060	C
9	H6     7.9580    -0.2240     0.2900	H
10	N3     6.9030     1.1960     1.1910	N
11	C2     5.7500     1.7220     1.3590	C
12	C3     4.8910     0.1490    -0.0660	C
13	C4     4.7410     1.1910     0.7190	C
14	N4     3.5270     1.5770     0.7420	N
15	C5     2.8570     0.8050    -0.0270	C
16	H7     1.8910     0.8870    -0.2050	H
17	N5     3.6480    -0.1460    -0.5780	N
18	C6    -0.3210    -0.7980    -1.0380	C
19	H8    -0.8070    -0.0530    -1.6660	H
20	H9    -0.0110    -0.3300    -0.1000	H
21	O1     1.0500    -3.5860    -0.6960	O
22	H10     0.1470    -3.4160    -0.3680	H
23	O2     2.8440    -3.0960    -2.6920	O
24	H11     3.7190    -3.0300    -3.1260	H
25	C7     3.0000    -2.3780    -1.4810	C
26	H12     3.7710    -2.8270    -0.8580	H
27	C8     1.6660    -2.3070    -0.8120	C
28	H13     1.7900    -1.8120     0.1470	H
29	C9     0.9270    -1.3760    -1.7580	C
30	H14     0.6210    -1.9260    -2.6500	H
31	C10     3.2370    -0.8990    -1.7690	C
32	H15     4.0120    -0.7410    -2.5240	H
33	O3     1.9220    -0.3860    -2.1800	O
34	O4    -1.2610    -1.8400    -0.7660	O
35	O5    -3.6090    -2.2200     0.0880	O
36	O6    -2.1490    -0.5870     1.1420	O
37	P1    -2.5040    -1.1620    -0.1300	P
38	O7    -3.0300    -0.0520    -1.0730	O
39	O8    -3.9930     1.0300     0.8980	O
40	O9    -5.3220    -0.6410    -0.2800	O
41	P2    -4.3090     0.5060    -0.4070	P
42	O10    -4.9120     1.6290    -1.2830	O
43	O11    -5.7670     2.6760     0.7470	O
44	O12    -7.1970     1.0280    -0.3270	O
45	P3    -6.1640     2.1580    -0.5360	P
46	H16    -7.5740     3.5860    -0.8410	H
47	O13    -6.8010     3.2920    -1.3690	O
48	C11    -0.1317     7.8120     1.9687	C
49	C12    -1.5545     7.1938     2.1267	C
50	C13    -1.6142     5.8719     1.3273	C
51	C14    -0.5222     4.8981     1.8287	C
52	C15     0.8694     5.5773     1.7393	C
53	O14     0.8827     6.8685     2.3955	O
54	C16     0.0487     9.1147     2.7854	C
55	O15     1.3890     9.5647     2.6422	O
56	O16    -2.5754     8.0667     1.6566	O
57	O17    -2.9009     5.2892     1.4538	O
58	O18    -0.6026     3.7311     1.0222	O
59	O19     1.2571     5.6737     0.3718	O
60	H17     0.0368     8.0630     0.9156	H
61	H18    -1.7472     6.9916     3.1854	H
62	H19    -1.4586     6.0774     0.2615	H
63	H20    -0.7170     4.6140     2.8673	H
64	H21     1.6039     4.9429     2.2390	H
65	H22    -0.1538     8.9496     3.8451	H
66	H23    -0.6221     9.8914     2.4141	H
67	H24     1.4102    10.5083     2.9074	H
68	H25    -3.4244     7.6253     1.8742	H
69	H26    -2.8176     4.3477     1.1964	H
70	H27     0.2450     3.2458     1.1182	H
71	H28     2.0125     6.2969     0.3359	H
@<TRIPOS>BOND
1	1	44	1
2	2	40	1
3	3	35	1
4	4	5	1
5	4	6	1
6	4	11	1
7	7	8	2
8	7	12	1
9	8	9	1
10	8	10	1
11	10	11	2
12	11	13	1
13	12	13	2
14	12	17	1
15	13	14	1
16	14	15	2
17	15	16	1
18	15	17	1
19	17	31	1
20	18	19	1
21	18	20	1
22	18	29	1
23	18	34	1
24	21	22	1
25	21	27	1
26	23	24	1
27	23	25	1
28	25	26	1
29	25	27	1
30	25	31	1
31	27	28	1
32	27	29	1
33	29	30	1
34	29	33	1
35	31	32	1
36	31	33	1
37	34	37	1
38	35	37	1
39	36	37	2
40	37	38	1
41	38	41	1
42	39	41	2
43	40	41	1
44	41	42	1
45	42	45	1
46	43	45	2
47	44	45	1
48	45	47	1
49	46	47	1
50	48	49	1
51	48	53	1
52	49	50	1
53	50	51	1
54	51	52	1
55	52	53	1
56	48	54	1
57	54	55	1
58	49	56	1
59	50	57	1
60	51	58	1
61	52	59	1
62	48	60	1
63	49	61	1
64	50	62	1
65	51	63	1
66	52	64	1
67	54	65	1
68	54	66	1
69	55	67	1
70	56	68	1
71	57	69	1
72	58	70	1
73	59	71	1
@<TRIPOS>SUBSTRUCTURE
1	noname	1
