@<TRIPOS>MOLECULE

24 24
SMALL
NO_CHARGES
@<TRIPOS>ATOM
1	C1    -0.3489     1.4207     0.0463	C
2	C2    -0.7257     2.6621    -0.8189	C
3	C3    -0.1095     3.9243    -0.1730	C
4	C4     1.4248     3.7672    -0.0584	C
5	C5     1.7637     2.4766     0.7324	C
6	O1     1.0902     1.3165     0.1859	O
7	C6    -0.8716     0.0926    -0.5533	C
8	O2    -0.4209    -0.9853     0.2556	O
9	O3    -2.1342     2.8360    -0.9252	O
10	O4    -0.4394     5.0696    -0.9415	O
11	O5     1.9163     4.9351     0.5845	O
12	O6     1.4490     2.6732     2.1079	O
13	H1    -0.7959     1.5261     1.0410	H
14	H2    -0.3261     2.5349    -1.8303	H
15	H3    -0.5367     4.0743     0.8257	H
16	H4     1.8741     3.7064    -1.0543	H
17	H5     2.8387     2.2970     0.6698	H
18	H6    -0.5038    -0.0552    -1.5702	H
19	H7    -1.9629     0.0862    -0.5676	H
20	H8    -0.9819    -1.7617     0.0466	H
21	H9    -2.2641     3.5829    -1.5483	H
22	H10     0.1868     5.7783    -0.6861	H
23	H11     2.8121     4.7291     0.9284	H
24	H12     1.4573     1.7882     2.5285	H
@<TRIPOS>BOND
1	1	2	1
2	1	6	1
3	2	3	1
4	3	4	1
5	4	5	1
6	5	6	1
7	1	7	1
8	7	8	1
9	2	9	1
10	3	10	1
11	4	11	1
12	5	12	1
13	1	13	1
14	2	14	1
15	3	15	1
16	4	16	1
17	5	17	1
18	7	18	1
19	7	19	1
20	8	20	1
21	9	21	1
22	10	22	1
23	11	23	1
24	12	24	1
@<TRIPOS>SUBSTRUCTURE
1	noname	1
