@<TRIPOS>MOLECULE

165 170
SMALL
USER_CHARGES
@<TRIPOS>ATOM
1	O1     0.1041    -2.3263     0.0000	O
2	C1    -0.7348    -1.2391     0.0000	C
3	C2    -0.0613    -0.0350     0.0000	C
4	C3    -0.7105     1.2695     0.0000	C
5	O2     1.1648    -0.0116    -0.0000	O
6	O3    -2.0176    -1.0908    -0.0000	O
7	H1     0.9668    -2.1725    -0.0000	H
8	H2    -1.3344     1.3702     0.8888	H
9	H3    -1.3344     1.3702    -0.8888	H
10	H4     0.0083     2.0941     0.0000	H
11	C4     0.7126   -11.2801     0.6156	C
12	C5     1.6832   -12.2155     0.7708	C
13	N1     2.8886   -12.1386     0.1952	N	1	noname	1
14	C6     3.2080   -11.0858    -0.5583	C
15	C7     2.3508   -10.0725    -0.7796	C
16	C8     1.0176   -10.0852    -0.1949	C
17	C9    -0.5316   -11.4319     1.1827	C
18	O4    -0.9437   -10.3599     1.7556	O
19	N2    -1.0774   -12.7200     1.0006	N
20	C10     3.8295   -13.1969     0.4104	C
21	O5     4.7732   -13.4337    -0.6641	O
22	C11     6.0634   -13.7733    -0.1089	C
23	C12     5.8384   -13.9598     1.4045	C
24	C13     4.7085   -12.9730     1.6574	C
25	O6     4.1686   -13.2927     2.9262	O
26	O7     6.8925   -13.6240     2.2869	O
27	C14     6.7874   -14.9393    -0.8271	C
28	O8     7.0382   -15.9354     0.0293	O
29	P1     7.5514   -17.3295    -0.3181	P
30	O9     6.5374   -18.0080    -1.1601	O
31	O10     7.7177   -18.0783     1.0211	O
32	O11     8.8453   -17.1627    -1.1405	O
33	P2     9.8447   -18.2723    -1.4434	P
34	O12     9.9912   -19.1323    -0.2463	O
35	O13     9.3195   -19.1288    -2.6201	O
36	O14    11.2067   -17.5748    -1.7045	O
37	C15    11.9614   -16.9755    -0.7765	C
38	C16    13.1866   -16.2758    -1.4146	C
39	O15    13.9459   -15.0599    -1.2378	O
40	C17    15.1641   -15.1452    -2.0150	C
41	C18    14.9311   -16.2924    -3.0157	C
42	C19    14.1297   -17.2514    -2.1477	C
43	O16    13.5603   -18.2223    -3.0034	O
44	O17    16.0562   -17.0116    -3.4901	O
45	N3    15.4870   -13.9048    -2.6633	N
46	C20    17.6764   -11.3723    -3.7824	C
47	N4    18.8858   -11.8187    -3.3440	N
48	C21    19.0189   -12.9850    -2.6510	C
49	N5    17.9270   -13.7508    -2.3731	N
50	C22    16.5433   -12.1565    -3.5011	C
51	N6    15.2482   -11.9962    -3.8030	N
52	C23    16.7013   -13.3423    -2.7910	C
53	C24    14.6224   -13.0708    -3.2855	C
54	N7    17.6004   -10.2457    -4.4459	N
55	H5     1.4813   -13.0039     1.3462	H
56	H6     4.1055   -11.0181    -0.9828	H
57	H7     2.6241    -9.3036    -1.3484	H
58	H8     0.3404    -9.4718    -0.3483	H
59	H9    -1.9196   -12.9259     1.3477	H
60	H10    -0.5850   -13.3635     0.5335	H
61	H11     3.3028   -14.1538     0.5228	H
62	H12     6.7333   -12.9213    -0.2642	H
63	H13     5.5193   -14.9855     1.6268	H
64	H14     5.0827   -11.9436     1.6787	H
65	H15     3.2431   -12.9693     2.9611	H
66	H16     7.7302   -13.9779     1.9165	H
67	H17     6.1483   -15.2910    -1.6439	H
68	H18     7.7277   -14.5717    -1.2510	H
69	H19     7.0659   -18.0398     1.6124	H
70	H20     8.5933   -19.6243    -2.5596	H
71	H21    12.3153   -17.7254    -0.0633	H
72	H22    11.3731   -16.2290    -0.2330	H
73	H23    12.3237   -16.0583    -2.0535	H
74	H24    15.9708   -15.4282    -1.3282	H
75	H25    14.3465   -15.9431    -3.8750	H
76	H26    14.7821   -17.7643    -1.4319	H
77	H27    12.8035   -18.6351    -2.5335	H
78	H28    16.7578   -16.3689    -3.7327	H
79	H29    19.9418   -13.2839    -2.3394	H
80	H30    13.6161   -13.2266    -3.3629	H
81	H31    18.3789    -9.7619    -4.6389	H
82	H32    16.7709    -9.9201    -4.7292	H
83	C25     8.5233    -6.8816    -0.7391	C
84	C26     9.0876    -5.4391    -0.5105	C
85	C27     8.7304    -4.5802    -1.7722	C
86	C28    10.6521    -5.5310    -0.4290	C
87	O18    11.0246    -6.0531     0.7463	O
88	P3    12.4075    -6.5535     1.1452	P
89	O19    12.4714    -6.6048     2.6526	O	1	noname	-1
90	O20    12.6081    -7.9077     0.5930	O
91	O21    13.4372    -5.5587     0.6441	O
92	P4    14.7992    -5.7855     0.0091	P
93	O22    14.8280    -7.0598    -0.8009	O	1	noname	-1
94	O23    15.8434    -5.8270     1.0524	O
95	O24    15.0682    -4.6234    -0.9407	O
96	C29    14.1530    -4.0660    -1.7465	C
97	C30    14.8016    -3.0387    -2.7100	C
98	O25    15.7335    -2.2119    -1.9922	O
99	C31    15.4372    -0.8167    -2.1500	C
100	C32    15.7961    -0.1893    -0.7683	C
101	C33    13.9242    -0.8383    -2.4911	C
102	O26    13.1778    -1.0354    -1.2972	O
103	C34    13.7726    -2.0870    -3.3825	C
104	O27    14.0826    -1.7840    -4.6556	O
105	P5    13.8010    -2.5897    -5.9176	P
106	O28    14.5264    -3.9128    -5.8627	O	1	noname	-1
107	O29    12.3179    -2.8517    -6.0326	O	1	noname	-1
108	O30    14.2675    -1.8274    -7.0948	O
109	N8    16.1951    -0.1540    -3.2011	N
110	C35    16.2085     1.1821    -3.4403	C
111	N9    16.9952     1.5137    -4.4782	N
112	C36    17.4886     0.3559    -4.9266	C
113	C37    16.9996    -0.6873    -4.1447	C
114	N10    17.3401    -1.9708    -4.4250	N
115	C38    18.1585    -2.2427    -5.4793	C
116	N11    18.6538    -1.2289    -6.2457	N
117	C39    18.3504     0.0753    -6.0006	C
118	N12    18.8478     1.0297    -6.7482	N
119	C40     8.5026    -4.8384     0.8368	C
120	O31     9.3743    -3.8667     1.4112	O
121	C41     7.1285    -4.3518     0.7720	C
122	O32     6.2196    -5.1673     0.9377	O
123	N13     6.7400    -3.1276     0.5326	N
124	C42     7.4180    -1.9376     0.2465	C
125	C43     6.7818    -1.2511    -0.9947	C
126	C44     7.2941     0.0985    -1.2152	C
127	O33     8.4757     0.2066    -1.5484	O
128	N14     6.6228     1.2236    -1.1268	N
129	C45     5.3290     1.4916    -0.6657	C
130	C46     5.3264     2.7562     0.2241	C
131	S1     3.6679     3.1491     0.8274	S
132	H33     7.4360    -6.8697    -0.8226	H
133	H34     8.9247    -7.3126    -1.6576	H
134	H35     8.7933    -7.5447     0.0846	H
135	H36     9.1076    -3.5612    -1.6708	H
136	H37     7.6494    -4.5430    -1.9357	H
137	H38     9.1790    -5.0065    -2.6715	H
138	H39    11.0862    -4.5291    -0.5099	H
139	H40    11.0384    -6.1221    -1.2670	H
140	H41    13.6440    -4.8284    -2.3474	H
141	H42    13.4051    -3.5650    -1.1278	H
142	H43    15.3652    -3.6036    -3.4537	H
143	H44    15.4072     0.8263    -0.6885	H
144	H45    16.8808    -0.1625    -0.6427	H
145	H46    15.3793    -0.7786     0.0520	H
146	H47    13.5872     0.0774    -2.9840	H
147	H48    12.2851    -0.6463    -1.4241	H
148	H49    12.7446    -2.4639    -3.3244	H
149	H50    15.6881     1.8792    -2.9040	H
150	H51    18.4000    -3.2092    -5.6964	H
151	H52    18.6426     1.9241    -6.5666	H
152	H53    19.4149     0.8220    -7.4616	H
153	H54     8.5162    -5.6261     1.5984	H
154	H55     8.8052    -3.2089     1.8604	H
155	H56     5.8146    -3.0744     0.4963	H
156	H57     8.4837    -2.0725     0.0608	H
157	H58     7.3069    -1.2873     1.1171	H
158	H59     5.6948    -1.2458    -0.8920	H
159	H60     7.0006    -1.8499    -1.8847	H
160	H61     7.1357     1.9412    -1.4116	H
161	H62     4.6876     1.6558    -1.5344	H
162	H63     4.9107     0.6691    -0.0865	H
163	H64     5.9762     2.6039     1.0888	H
164	H65     5.6924     3.6150    -0.3415	H
165	H66     3.1718     3.3857    -0.4187	H
@<TRIPOS>BOND
1	1	2	1
2	2	3	1
3	3	4	1
4	3	5	2
5	2	6	2
6	1	7	1
7	4	8	1
8	4	9	1
9	4	10	1
10	11	12	1
11	11	16	2
12	12	13	2
13	13	14	1
14	14	15	2
15	15	16	1
16	11	17	1
17	17	18	2
18	17	19	1
19	13	20	1
20	24	20	1
21	21	20	1
22	21	22	1
23	22	23	1
24	23	24	1
25	24	25	1
26	23	26	1
27	22	27	1
28	27	28	1
29	28	29	1
30	29	30	2
31	29	31	1
32	29	32	1
33	32	33	1
34	33	34	2
35	33	35	1
36	33	36	1
37	36	37	1
38	37	38	1
39	42	38	1
40	39	38	1
41	39	40	1
42	40	41	1
43	41	42	1
44	42	43	1
45	41	44	1
46	40	45	1
47	52	45	1
48	45	53	1
49	46	47	2
50	46	50	1
51	47	48	1
52	48	49	2
53	49	52	1
54	52	50	2
55	51	50	1
56	51	53	2
57	46	54	1
58	12	55	1
59	14	56	1
60	15	57	1
61	16	58	1
62	19	59	1
63	19	60	1
64	20	61	1
65	22	62	1
66	23	63	1
67	24	64	1
68	25	65	1
69	26	66	1
70	27	67	1
71	27	68	1
72	31	69	1
73	35	70	1
74	37	71	1
75	37	72	1
76	38	73	1
77	40	74	1
78	41	75	1
79	42	76	1
80	43	77	1
81	44	78	1
82	48	79	1
83	53	80	1
84	54	81	1
85	54	82	1
86	83	84	1
87	84	85	1
88	84	86	1
89	84	119	1
90	86	87	1
91	87	88	1
92	88	89	1
93	88	90	2
94	88	91	1
95	91	92	1
96	92	93	1
97	92	94	2
98	92	95	1
99	95	96	1
100	96	97	1
101	97	98	1
102	97	103	1
103	98	99	1
104	99	100	1
105	99	101	1
106	99	109	1
107	101	102	1
108	101	103	1
109	103	104	1
110	104	105	1
111	105	106	1
112	105	107	1
113	105	108	2
114	109	110	1
115	109	113	1
116	110	111	2
117	111	112	1
118	112	113	2
119	112	117	1
120	113	114	1
121	114	115	2
122	115	116	1
123	116	117	2
124	117	118	1
125	119	120	1
126	119	121	1
127	121	122	2
128	121	123	1
129	123	124	1
130	124	125	1
131	125	126	1
132	126	127	2
133	126	128	1
134	128	129	1
135	129	130	1
136	130	131	1
137	83	132	1
138	83	133	1
139	83	134	1
140	85	135	1
141	85	136	1
142	85	137	1
143	86	138	1
144	86	139	1
145	96	140	1
146	96	141	1
147	97	142	1
148	100	143	1
149	100	144	1
150	100	145	1
151	101	146	1
152	102	147	1
153	103	148	1
154	110	149	1
155	115	150	1
156	118	151	1
157	118	152	1
158	119	153	1
159	120	154	1
160	123	155	1
161	124	156	1
162	124	157	1
163	125	158	1
164	125	159	1
165	128	160	1
166	129	161	1
167	129	162	1
168	130	163	1
169	130	164	1
170	131	165	1
@<TRIPOS>SUBSTRUCTURE
1	noname	1
