@<TRIPOS>MOLECULE
Adenosine
66 68
SMALL
USER_CHARGES
@<TRIPOS>ATOM
1	N1     5.5200     2.7960     2.1670	N
2	H1     5.7240     2.5080     3.1260	H
3	H2     4.5120     2.9760     2.1140	H
4	N2     6.0530    -0.3610    -0.2210	N
5	C1     7.0510     0.1650     0.4060	C
6	H3     7.9580    -0.2240     0.2900	H
7	N3     6.9030     1.1960     1.1910	N
8	C2     5.7500     1.7220     1.3590	C
9	C3     4.8910     0.1490    -0.0660	C
10	C4     4.7410     1.1910     0.7190	C
11	N4     3.5270     1.5770     0.7420	N
12	C5     2.8570     0.8050    -0.0270	C
13	H4     1.8910     0.8870    -0.2050	H
14	N5     3.6480    -0.1460    -0.5780	N
15	C6    -0.3210    -0.7980    -1.0380	C
16	H5    -0.8070    -0.0530    -1.6660	H
17	H6    -0.0110    -0.3300    -0.1000	H
18	O1     1.0500    -3.5860    -0.6960	O
19	H7     0.1470    -3.4160    -0.3680	H
20	O2     2.8440    -3.0960    -2.6920	O
21	H8     3.7190    -3.0300    -3.1260	H
22	C7     3.0000    -2.3780    -1.4810	C
23	H9     3.7710    -2.8270    -0.8580	H
24	C8     1.6660    -2.3070    -0.8120	C
25	H10     1.7900    -1.8120     0.1470	H
26	C9     0.9270    -1.3760    -1.7580	C
27	H11     0.6210    -1.9260    -2.6500	H
28	C10     3.2370    -0.8990    -1.7690	C
29	H12     4.0120    -0.7410    -2.5240	H
30	O3     1.9220    -0.3860    -2.1800	O
31	O4    -1.2610    -1.8400    -0.7660	O
32	O5    -3.6090    -2.2200     0.0880	O	1	noname	-1
33	O6    -2.1490    -0.5870     1.1420	O
34	P1    -2.5040    -1.1620    -0.1300	P
35	O7    -3.0300    -0.0520    -1.0730	O
36	O8    -3.9930     1.0300     0.8980	O
37	O9    -5.3220    -0.6410    -0.2800	O	1	noname	-1
38	P2    -4.3090     0.5060    -0.4070	P
39	O10    -4.9120     1.6840    -1.2830	O	1	noname	-1
40	C11    -1.4434     7.6764    -0.2299	C
41	C12    -2.7809     6.9313     0.0755	C
42	C13    -2.6329     5.4321    -0.2674	C
43	C14    -1.4382     4.8163     0.4956	C
44	C15    -0.1495     5.6192     0.1830	C
45	O11    -0.3337     7.0333     0.4461	O
46	C16    -1.4912     9.1619     0.2184	C
47	O12    -0.3520     9.7878    -0.1125	O
48	O13    -3.8620     7.4655    -0.6799	O
49	O14    -3.8346     4.7543     0.0516	O
50	O15    -1.3373     3.4601     0.0850	O
51	O16     0.2542     5.3608    -1.1606	O
52	P3    -0.0231    11.2684     0.0309	P
53	O17     1.2496    11.4097     0.8329	O	1	noname	-1
54	O18    -1.1137    12.0052     0.7013	O
55	O19     0.2089    11.8487    -1.3449	O	1	noname	-1
56	H13    -1.2629     7.6551    -1.3102	H
57	H14    -3.0242     7.0407     1.1362	H
58	H15    -2.4780     5.3152    -1.3447	H
59	H16    -1.6238     4.8360     1.5732	H
60	H17     0.6538     5.2667     0.8351	H
61	H18    -1.6292     9.2037     1.3044	H
62	H19    -2.3415     9.6539    -0.2670	H
63	H20    -4.6811     7.0595    -0.3244	H
64	H21    -3.6209     3.8012     0.1338	H
65	H22    -0.4409     3.1426     0.3289	H
66	H23     0.9186     6.0445    -1.3906	H
@<TRIPOS>BOND
1	1	2	1
2	1	3	1
3	1	8	1
4	4	5	2
5	4	9	1
6	5	6	1
7	5	7	1
8	7	8	2
9	8	10	1
10	9	10	2
11	9	14	1
12	10	11	1
13	11	12	2
14	12	13	1
15	12	14	1
16	14	28	1
17	15	16	1
18	15	17	1
19	15	26	1
20	15	31	1
21	18	19	1
22	18	24	1
23	20	21	1
24	20	22	1
25	22	23	1
26	22	24	1
27	22	28	1
28	24	25	1
29	24	26	1
30	26	27	1
31	26	30	1
32	28	29	1
33	28	30	1
34	31	34	1
35	32	34	1
36	33	34	2
37	34	35	1
38	35	38	1
39	36	38	2
40	37	38	1
41	38	39	1
42	40	41	1
43	40	45	1
44	41	42	1
45	42	43	1
46	43	44	1
47	44	45	1
48	40	46	1
49	46	47	1
50	41	48	1
51	42	49	1
52	43	50	1
53	44	51	1
54	47	52	1
55	52	53	1
56	52	54	2
57	52	55	1
58	40	56	1
59	41	57	1
60	42	58	1
61	43	59	1
62	44	60	1
63	46	61	1
64	46	62	1
65	48	63	1
66	49	64	1
67	50	65	1
68	51	66	1
@<TRIPOS>SUBSTRUCTURE
1	noname	1
