@<TRIPOS>MOLECULE

27 27
SMALL
USER_CHARGES
@<TRIPOS>ATOM
1	C1    -2.1618    -0.6931     1.1531	C
2	C2    -2.8425    -1.2919     2.4240	C
3	C3    -4.3772    -1.2879     2.2447	C
4	C4    -4.7754    -2.0490     0.9599	C
5	C5    -4.0411    -1.4347    -0.2595	C
6	O1    -2.6084    -1.3845    -0.0404	O
7	C6    -0.6141    -0.7924     1.2223	C
8	O2    -0.0592    -0.2157     0.1460	O
9	O3    -2.5196    -0.5457     3.5917	O
10	O4    -4.9865    -1.8712     3.3822	O
11	O5    -6.1875    -1.9514     0.8397	O
12	O6    -4.5955    -0.1525    -0.5483	O
13	P1     1.4206     0.0165    -0.1316	P
14	O7     1.7693    -0.6015    -1.4656	O	1	noname	-1
15	O8     2.2706    -0.5725     0.9230	O
16	O9     1.6709     1.5047    -0.2112	O	1	noname	-1
17	H1    -2.4292     0.3662     1.0720	H
18	H2    -2.4953    -2.3184     2.5731	H
19	H3    -4.7372    -0.2560     2.1848	H
20	H4    -4.5103    -3.1065     1.0462	H
21	H5    -4.2168    -2.0670    -1.1336	H
22	H6    -0.3246    -1.8482     1.2616	H
23	H7    -0.2651    -0.2942     2.1338	H
24	H8    -2.8486    -1.0641     4.3567	H
25	H9    -5.8901    -2.1474     3.1216	H
26	H10    -6.4218    -2.1712    -0.0879	H
27	H11    -3.9705     0.2925    -1.1591	H
@<TRIPOS>BOND
1	1	2	1
2	1	6	1
3	2	3	1
4	3	4	1
5	4	5	1
6	5	6	1
7	1	7	1
8	7	8	1
9	2	9	1
10	3	10	1
11	4	11	1
12	5	12	1
13	8	13	1
14	13	14	1
15	13	15	2
16	13	16	1
17	1	17	1
18	2	18	1
19	3	19	1
20	4	20	1
21	5	21	1
22	7	22	1
23	7	23	1
24	9	24	1
25	10	25	1
26	11	26	1
27	12	27	1
@<TRIPOS>SUBSTRUCTURE
1	noname	1
