@<TRIPOS>MOLECULE

101 101
SMALL
USER_CHARGES
@<TRIPOS>ATOM
1	C1     0.5421     0.6973     6.0137	C
2	C2     1.0957     1.9443     6.7879	C
3	C3     1.0235     3.1827     5.8276	C
4	C4     2.6167     1.7064     7.0986	C
5	O1     2.7919     0.8702     8.1287	O
6	P1     4.1233     0.2904     8.5970	P
7	O2     3.9962    -0.0651    10.0596	O	1	noname	-1
8	O3     4.4200    -0.9262     7.8143	O
9	O4     5.1940     1.3594     8.4443	O
10	P2     6.6090     1.2647     7.8961	P
11	O5     6.6611     0.3691     6.6813	O	1	noname	-1
12	O6     7.5183     0.7531     8.9407	O
13	O7     7.0578     2.6611     7.4738	O
14	C5     6.3130     3.5540     6.8084	C
15	C6     7.1238     4.8396     6.4925	C
16	O8     7.8764     5.2528     7.6536	O
17	C7     7.6763     6.6554     7.9082	C
18	C8     7.8631     6.8599     9.4385	C
19	C9     6.2179     6.8384     7.4066	C
20	O9     5.3161     6.2265     8.3231	O
21	C10     6.2174     6.0399     6.0890	C
22	O10     6.7498     6.8117     5.1273	O
23	P3     6.7370     6.6297     3.6184	P
24	O11     7.2690     5.2656     3.2522	O	1	noname	-1
25	O12     5.3220     6.7652     3.1097	O	1	noname	-1
26	O13     7.5882     7.6736     3.0089	O
27	N1     8.5984     7.5336     7.2010	N
28	C11     8.5583     8.8900     7.1986	C
29	N2     9.5090     9.4303     6.4153	N
30	C12    10.1826     8.3892     5.9132	C
31	C13     9.6394     7.2081     6.4091	C
32	N3    10.1679     6.0070     6.0587	N
33	C14    11.2287     5.9518     5.2087	C
34	N4    11.7594     7.1013     4.7027	N
35	C15    11.2692     8.3306     5.0255	C
36	N5    11.7995     9.4116     4.5101	N
37	C16     0.2654     2.1523     8.1255	C
38	O14     1.0281     2.8032     9.1394	O
39	C17    -1.0450     2.7801     7.9589	C
40	O15    -1.9848     2.0630     7.6111	O
41	N6    -1.3393     4.0473     8.1262	N
42	C18    -0.5693     5.1623     8.4786	C
43	C19    -0.9893     6.4217     7.6718	C
44	C20    -0.2763     7.6219     8.1039	C
45	O16     0.9511     7.6306     7.9862	O
46	N7    -0.8060     8.7054     8.6222	N
47	C21    -2.1458     9.0620     8.7870	C
48	C22    -2.2605    10.3202     9.6788	C
49	S1    -3.9913    10.8514     9.9174	S
50	H1    -0.5062     0.8386     5.7405	H
51	H2     1.1028     0.5230     5.0906	H
52	H3     0.6155    -0.2053     6.6255	H
53	H4     1.4197     4.0737     6.3150	H
54	H5    -0.0025     3.3910     5.5212	H
55	H6     1.6092     3.0076     4.9224	H
56	H7     3.0835     2.6607     7.3659	H
57	H8     3.1304     1.3325     6.2048	H
58	H9     5.9507     3.1288     5.8668	H
59	H10     5.4443     3.8127     7.4190	H
60	H11     7.8371     4.5989     5.6999	H
61	H12     7.5537     7.8643     9.7315	H
62	H13     8.9131     6.7229     9.7056	H
63	H14     7.2741     6.1375    10.0071	H
64	H15     5.9364     7.8857     7.2680	H
65	H16     4.4505     6.6829     8.2572	H
66	H17     5.1960     5.7429     5.8226	H
67	H18     7.8837     9.4557     7.7183	H
68	H19    11.6256     5.0481     4.9486	H
69	H20    11.4506    10.2541     4.7213	H
70	H21    12.5262     9.3446     3.9251	H
71	H22     0.0881     1.1697     8.5745	H
72	H23     0.3761     3.2756     9.6997	H
73	H24    -2.2301     4.2150     7.9254	H
74	H25     0.4948     4.9981     8.3089	H
75	H26    -0.7265     5.3476     9.5434	H
76	H27    -2.0680     6.5543     7.7601	H
77	H28    -0.7750     6.2583     6.6128	H
78	H29    -0.1530     9.3138     8.8697	H
79	H30    -2.5790     9.2647     7.8043	H
80	H31    -2.7010     8.2514     9.2655	H
81	H32    -1.8517    10.0930    10.6650	H
82	H33    -1.6859    11.1461     9.2575	H
83	C23    -4.5310    11.4401     8.3886	C
84	C24    -3.9344    12.5989     7.7664	C
85	O17    -5.4798    10.8723     7.8691	O
86	O18    -3.7515    -4.6259     0.6306	O
87	C25    -4.3795    -3.8077     1.5390	C
88	C26    -5.3221    -4.4562     2.3093	C
89	C27    -6.2125    -3.8088     3.2827	C
90	C28    -7.1206    -2.8436     2.6912	C
91	O19    -7.9209    -3.1970     1.8172	O
92	O20    -4.2815    -2.5569     1.8405	O
93	O21    -7.1209    -1.6654     3.0586	O
94	O22    -5.4526    -5.6720     2.2039	O
95	H34    -3.9876    -5.4701     0.6109	H
96	H35    -6.8290    -4.5531     3.7974	H
97	H36    -5.6004    -3.3299     4.0516	H
98	H37    -8.4277    -2.5407     1.5571	H
99	O23     8.4907    -3.9616    -0.7674	O
100	H38     7.7377    -4.5806    -0.6691	H
101	H39     9.2378    -4.5270    -1.0540	H
@<TRIPOS>BOND
1	1	2	1
2	2	3	1
3	2	4	1
4	2	37	1
5	4	5	1
6	5	6	1
7	6	7	1
8	6	8	2
9	6	9	1
10	9	10	1
11	10	11	1
12	10	12	2
13	10	13	1
14	13	14	1
15	14	15	1
16	15	16	1
17	15	21	1
18	16	17	1
19	17	18	1
20	17	19	1
21	17	27	1
22	19	20	1
23	19	21	1
24	21	22	1
25	22	23	1
26	23	24	1
27	23	25	1
28	23	26	2
29	27	28	1
30	27	31	1
31	28	29	2
32	29	30	1
33	30	31	2
34	30	35	1
35	31	32	1
36	32	33	2
37	33	34	1
38	34	35	2
39	35	36	1
40	37	38	1
41	37	39	1
42	39	40	2
43	39	41	1
44	41	42	1
45	42	43	1
46	43	44	1
47	44	45	2
48	44	46	1
49	46	47	1
50	47	48	1
51	48	49	1
52	1	50	1
53	1	51	1
54	1	52	1
55	3	53	1
56	3	54	1
57	3	55	1
58	4	56	1
59	4	57	1
60	14	58	1
61	14	59	1
62	15	60	1
63	18	61	1
64	18	62	1
65	18	63	1
66	19	64	1
67	20	65	1
68	21	66	1
69	28	67	1
70	33	68	1
71	36	69	1
72	36	70	1
73	37	71	1
74	38	72	1
75	41	73	1
76	42	74	1
77	42	75	1
78	43	76	1
79	43	77	1
80	46	78	1
81	47	79	1
82	47	80	1
83	48	81	1
84	48	82	1
85	49	83	1
86	83	84	1
87	83	85	2
88	86	87	1
89	87	88	1
90	88	89	1
91	89	90	1
92	90	91	1
93	87	92	2
94	90	93	2
95	88	94	2
96	86	95	1
97	89	96	1
98	89	97	1
99	91	98	1
100	99	100	1
101	99	101	1
@<TRIPOS>SUBSTRUCTURE
1	noname	1
