@<TRIPOS>MOLECULE

104 105
SMALL
USER_CHARGES
@<TRIPOS>ATOM
1	C1    -1.5367     1.0670    -0.9793	C
2	C2    -0.8819     2.1386    -0.0443	C
3	C3    -0.6630     3.4408    -0.8892	C
4	C4     0.5319     1.6137     0.3896	C
5	O1     0.4050     0.6408     1.3006	O
6	P1     1.4836    -0.3133     1.7989	P
7	O2     1.0249    -0.8945     3.1144	O	1	noname	-1
8	O3     1.6623    -1.3966     0.8123	O
9	O4     2.7539     0.4828     2.0306	O
10	P2     4.2028     0.1362     1.7300	P
11	O5     4.3206    -0.7411     0.5064	O	1	noname	-1
12	O6     4.8142    -0.5362     2.8938	O
13	O7     4.9419     1.4386     1.4425	O
14	C5     4.4442     2.4600     0.7308	C
15	C6     5.5215     3.5451     0.4734	C
16	O8     6.2637     3.7966     1.6788	O
17	C7     6.2424     5.1864     2.0358	C
18	C8     6.1983     5.1817     3.5945	C
19	C9     4.9481     5.6846     1.3413	C
20	O9     3.8213     5.2942     2.1153	O
21	C10     4.9295     4.9061     0.0107	C
22	O10     5.6926     5.5347    -0.9011	O
23	P3     5.7425     5.3171    -2.4081	P
24	O11     6.2080     3.9141    -2.7160	O	1	noname	-1
25	O12     4.3647     5.5130    -2.9954	O	1	noname	-1
26	O13     6.6847     6.2851    -3.0078	O
27	N1     7.3986     5.9441     1.5804	N
28	C11     7.6843     7.2267     1.9212	C
29	N2     8.8152     7.6740     1.3491	N
30	C12     9.2592     6.6543     0.6087	C
31	C13     8.3895     5.5750     0.7414	C
32	N3     8.6164     4.4249     0.0578	N
33	C14     9.6955     4.3256    -0.7676	C
34	N4    10.5615     5.3714    -0.8971	N
35	C15    10.3840     6.5426    -0.2263	C
36	N5    11.2372     7.5278    -0.3632	N
37	C16    -1.7959     2.3716     1.2319	C
38	O14    -1.0402     2.8189     2.3556	O
39	C17    -2.9815     3.1961     1.0228	C
40	O15    -4.0002     2.6448     0.6016	O
41	N6    -3.0855     4.4842     1.2148	N
42	C18    -2.1870     5.4752     1.6246	C
43	C19    -2.2592     6.6888     0.6558	C
44	C20    -1.5140     7.8449     1.1461	C
45	O16    -0.2869     7.7441     1.2008	O
46	N7    -2.0062     9.0060     1.5123	N
47	C21    -3.3268     9.4314     1.6949	C
48	C22    -3.4487    10.2655     2.9911	C
49	S1    -5.1387    10.8512     3.2561	S
50	H1    -2.5177     1.3942    -1.3257	H
51	H2    -0.9143     0.8881    -1.8575	H
52	H3    -1.6601     0.1149    -0.4602	H
53	H4    -0.2000     4.2242    -0.2869	H
54	H5    -1.6073     3.8167    -1.2937	H
55	H6    -0.0025     3.2470    -1.7366	H
56	H7     1.1070     2.4294     0.8398	H
57	H8     1.0899     1.2670    -0.4875	H
58	H9     4.0648     2.1143    -0.2376	H
59	H10     3.6112     2.8967     1.2865	H
60	H11     6.2161     3.1426    -0.2650	H
61	H12     5.9558     6.1722     3.9807	H
62	H13     7.1681     4.8755     3.9929	H
63	H14     5.4480     4.4791     3.9652	H
64	H15     4.9336     6.7683     1.1981	H
65	H16     3.0902     5.9247     1.9350	H
66	H17     3.8998     4.8186    -0.3557	H
67	H18     7.1191     7.8081     2.5430	H
68	H19     9.8544     3.4656    -1.2915	H
69	H20    11.1135     8.3255     0.1094	H
70	H21    11.9762     7.4357    -0.9280	H
71	H22    -2.1547     1.3965     1.5800	H
72	H23    -1.6269     3.4078     2.8727	H
73	H24    -3.9260     4.7895     0.9680	H
74	H25    -1.1526     5.1354     1.6795	H
75	H26    -2.4916     5.7913     2.6249	H
76	H27    -3.3040     6.9460     0.4700	H
77	H28    -1.8404     6.3972    -0.3127	H
78	H29    -1.3296     9.6146     1.6878	H
79	H30    -3.6053    10.0477     0.8372	H
80	H31    -4.0303     8.6020     1.7586	H
81	H32    -3.1594     9.6591     3.8523	H
82	H33    -2.7932    11.1369     2.9409	H
83	H34    -5.1438    11.6240     2.1347	H
84	O17     6.6181    10.9266    -0.9015	O
85	C23     6.5252    11.8360     0.1080	C
86	C24     5.8932    13.0887    -0.3016	C
87	C25     4.4671    13.3785     0.2942	C
88	C26     3.4057    12.3342    -0.2179	C
89	C27     2.0395    12.5123     0.2862	C
90	O18     1.4805    13.6577    -0.1674	O
91	O19     6.8818    11.8835     1.3432	O
92	C28     4.1318    14.7669    -0.0820	C
93	O20     3.7583    15.0378    -1.2297	O
94	O21     4.2353    15.7181     0.7066	O
95	O22     4.5148    13.2267     1.7252	O
96	O23     1.6594    11.5441     1.0367	O
97	H35     6.3149    11.1742    -1.6864	H
98	H36     5.8130    13.1248    -1.3929	H
99	H37     6.5784    13.9015    -0.0338	H
100	H38     3.3650    12.3612    -1.3106	H
101	H39     3.7697    11.3326     0.0334	H
102	H40     2.0641    14.1590    -0.5559	H
103	H41     4.0721    16.4818     0.3260	H
104	H42     3.6570    13.5989     2.0202	H
@<TRIPOS>BOND
1	1	2	1
2	2	3	1
3	2	4	1
4	2	37	1
5	4	5	1
6	5	6	1
7	6	7	1
8	6	8	2
9	6	9	1
10	9	10	1
11	10	11	1
12	10	12	2
13	10	13	1
14	13	14	1
15	14	15	1
16	15	16	1
17	15	21	1
18	16	17	1
19	17	18	1
20	17	19	1
21	17	27	1
22	19	20	1
23	19	21	1
24	21	22	1
25	22	23	1
26	23	24	1
27	23	25	1
28	23	26	2
29	27	28	1
30	27	31	1
31	28	29	2
32	29	30	1
33	30	31	2
34	30	35	1
35	31	32	1
36	32	33	2
37	33	34	1
38	34	35	2
39	35	36	1
40	37	38	1
41	37	39	1
42	39	40	2
43	39	41	1
44	41	42	1
45	42	43	1
46	43	44	1
47	44	45	2
48	44	46	1
49	46	47	1
50	47	48	1
51	48	49	1
52	1	50	1
53	1	51	1
54	1	52	1
55	3	53	1
56	3	54	1
57	3	55	1
58	4	56	1
59	4	57	1
60	14	58	1
61	14	59	1
62	15	60	1
63	18	61	1
64	18	62	1
65	18	63	1
66	19	64	1
67	20	65	1
68	21	66	1
69	28	67	1
70	33	68	1
71	36	69	1
72	36	70	1
73	37	71	1
74	38	72	1
75	41	73	1
76	42	74	1
77	42	75	1
78	43	76	1
79	43	77	1
80	46	78	1
81	47	79	1
82	47	80	1
83	48	81	1
84	48	82	1
85	49	83	1
86	84	85	1
87	85	86	1
88	86	87	1
89	87	88	1
90	88	89	1
91	89	90	1
92	85	91	2
93	87	92	1
94	92	93	2
95	92	94	1
96	87	95	1
97	89	96	2
98	84	97	1
99	86	98	1
100	86	99	1
101	88	100	1
102	88	101	1
103	90	102	1
104	94	103	1
105	95	104	1
@<TRIPOS>SUBSTRUCTURE
1	noname	1
