@<TRIPOS>MOLECULE

27 27
SMALL
USER_CHARGES
@<TRIPOS>ATOM
1	O1    -1.8151     0.8774    -1.4281	O
2	C1    -1.9063    -0.5470    -1.1957	C
3	C2    -2.7205    -1.1471    -2.3744	C
4	C3    -2.6876    -0.0108    -3.3979	C
5	C4    -2.7395     1.2198    -2.4784	C
6	C5    -2.3017     2.5423    -3.1586	C
7	O2    -2.3081     3.5479    -2.1589	O
8	O3    -4.0676     1.4053    -1.9529	O
9	O4    -1.4377    -0.0262    -4.0686	O
10	O5    -4.0746    -1.3586    -1.9880	O
11	C6    -0.4714    -1.1235    -1.0751	C
12	O6     0.0872    -0.6910     0.0626	O
13	P1     1.5060    -0.1959     0.2912	P
14	O7     2.4733    -1.0150    -0.4677	O
15	O8     1.8144    -0.2878     1.7665	O	1	noname	-1
16	O9     1.5980     1.2467    -0.1435	O	1	noname	-1
17	H1    -2.4339    -0.7254    -0.2516	H
18	H2    -2.3019    -2.0748    -2.7770	H
19	H3    -3.5120    -0.0421    -4.1151	H
20	H4    -1.2917     2.4658    -3.5656	H
21	H5    -2.9962     2.8148    -3.9566	H
22	H6    -2.0475     4.4066    -2.5643	H
23	H7    -4.0037     2.3104    -1.5987	H
24	H8    -1.5078    -0.6162    -4.8500	H
25	H9    -4.2064    -2.3319    -1.9624	H
26	H10    -0.5140    -2.2149    -1.0291	H
27	H11     0.1018    -0.8418    -1.9658	H
@<TRIPOS>BOND
1	1	2	1
2	2	3	1
3	3	4	1
4	4	5	1
5	1	5	1
6	5	6	1
7	6	7	1
8	5	8	1
9	4	9	1
10	3	10	1
11	2	11	1
12	11	12	1
13	12	13	1
14	13	14	2
15	13	15	1
16	13	16	1
17	2	17	1
18	3	18	1
19	4	19	1
20	6	20	1
21	6	21	1
22	7	22	1
23	8	23	1
24	9	24	1
25	10	25	1
26	11	26	1
27	11	27	1
@<TRIPOS>SUBSTRUCTURE
1	noname	1
