@<TRIPOS>MOLECULE
Adenosine
27 27
SMALL
USER_CHARGES
@<TRIPOS>ATOM
1	C1    -1.4434     7.6764    -0.2299	C
2	C2    -2.7809     6.9313     0.0755	C
3	C3    -2.6329     5.4321    -0.2674	C
4	C4    -1.4382     4.8163     0.4956	C
5	C5    -0.1495     5.6192     0.1830	C
6	O1    -0.3337     7.0333     0.4461	O
7	C6    -1.4912     9.1619     0.2184	C
8	O2    -0.3520     9.7878    -0.1125	O
9	O3    -3.8620     7.4655    -0.6799	O
10	O4    -3.8346     4.7543     0.0516	O
11	O5    -1.3373     3.4601     0.0850	O
12	O6     0.2542     5.3608    -1.1606	O
13	P1    -0.0231    11.2684     0.0309	P
14	O7     1.2496    11.4097     0.8329	O	1	noname	-1
15	O8    -1.1137    12.0052     0.7013	O
16	O9     0.2089    11.8487    -1.3449	O	1	noname	-1
17	H1    -1.2629     7.6551    -1.3102	H
18	H2    -3.0242     7.0407     1.1362	H
19	H3    -2.4780     5.3152    -1.3447	H
20	H4    -1.6238     4.8360     1.5732	H
21	H5     0.6538     5.2667     0.8351	H
22	H6    -1.6292     9.2037     1.3044	H
23	H7    -2.3415     9.6539    -0.2670	H
24	H8    -4.6811     7.0595    -0.3244	H
25	H9    -3.6209     3.8012     0.1338	H
26	H10    -0.4409     3.1426     0.3289	H
27	H11     0.9186     6.0445    -1.3906	H
@<TRIPOS>BOND
1	1	2	1
2	1	6	1
3	2	3	1
4	3	4	1
5	4	5	1
6	5	6	1
7	1	7	1
8	7	8	1
9	2	9	1
10	3	10	1
11	4	11	1
12	5	12	1
13	8	13	1
14	13	14	1
15	13	15	2
16	13	16	1
17	1	17	1
18	2	18	1
19	3	19	1
20	4	20	1
21	5	21	1
22	7	22	1
23	7	23	1
24	9	24	1
25	10	25	1
26	11	26	1
27	12	27	1
@<TRIPOS>SUBSTRUCTURE
1	noname	1
