@<TRIPOS>MOLECULE

21 20
SMALL
NO_CHARGES
@<TRIPOS>ATOM
1	O1     6.6181    10.9266    -0.9015	O
2	C1     6.5252    11.8360     0.1080	C
3	C2     5.8932    13.0887    -0.3016	C
4	C3     4.4671    13.3785     0.2942	C
5	C4     3.4057    12.3342    -0.2179	C
6	C5     2.0395    12.5123     0.2862	C
7	O2     1.4805    13.6577    -0.1674	O
8	O3     6.8818    11.8835     1.3432	O
9	C6     4.1318    14.7669    -0.0820	C
10	O4     3.7583    15.0378    -1.2297	O
11	O5     4.2353    15.7181     0.7066	O
12	O6     1.6594    11.5441     1.0367	O
13	H1     6.3149    11.1742    -1.6864	H
14	H2     5.8130    13.1248    -1.3929	H
15	O7     6.7870    14.1489     0.0477	O
16	H3     3.3650    12.3612    -1.3106	H
17	H4     3.7697    11.3326     0.0334	H
18	H5     2.0641    14.1590    -0.5559	H
19	H6     4.0721    16.4818     0.3260	H
20	H7     4.4455    13.3387     1.3833	H
21	H8     6.8445    14.2171     1.0036	H
@<TRIPOS>BOND
1	1	2	1
2	2	3	1
3	3	4	1
4	4	5	1
5	5	6	1
6	6	7	1
7	2	8	2
8	4	9	1
9	9	10	2
10	9	11	1
11	6	12	2
12	1	13	1
13	3	14	1
14	3	15	1
15	5	16	1
16	5	17	1
17	7	18	1
18	11	19	1
19	4	20	1
20	15	21	1
@<TRIPOS>SUBSTRUCTURE
1	noname	1
