@<TRIPOS>MOLECULE
Adenosine
69 71
SMALL
USER_CHARGES
@<TRIPOS>ATOM
1	N1     5.5200     2.7960     2.1670	N
2	H1     5.7240     2.5080     3.1260	H
3	H2     4.5120     2.9760     2.1140	H
4	N2     6.0530    -0.3610    -0.2210	N
5	C1     7.0510     0.1650     0.4060	C
6	H3     7.9580    -0.2240     0.2900	H
7	N3     6.9030     1.1960     1.1910	N
8	C2     5.7500     1.7220     1.3590	C
9	C3     4.8910     0.1490    -0.0660	C
10	C4     4.7410     1.1910     0.7190	C
11	N4     3.5270     1.5770     0.7420	N
12	C5     2.8570     0.8050    -0.0270	C
13	H4     1.8910     0.8870    -0.2050	H
14	N5     3.6480    -0.1460    -0.5780	N
15	C6    -0.3210    -0.7980    -1.0380	C
16	H5    -0.8070    -0.0530    -1.6660	H
17	H6    -0.0110    -0.3300    -0.1000	H
18	O1     1.0500    -3.5860    -0.6960	O
19	H7     0.1470    -3.4160    -0.3680	H
20	O2     2.8440    -3.0960    -2.6920	O
21	H8     3.7190    -3.0300    -3.1260	H
22	C7     3.0000    -2.3780    -1.4810	C
23	H9     3.7710    -2.8270    -0.8580	H
24	C8     1.6660    -2.3070    -0.8120	C
25	H10     1.7900    -1.8120     0.1470	H
26	C9     0.9270    -1.3760    -1.7580	C
27	H11     0.6210    -1.9260    -2.6500	H
28	C10     3.2370    -0.8990    -1.7690	C
29	H12     4.0120    -0.7410    -2.5240	H
30	O3     1.9220    -0.3860    -2.1800	O
31	O4    -1.2610    -1.8400    -0.7660	O
32	O5    -3.6090    -2.2200     0.0880	O	1	noname	-1
33	O6    -2.1490    -0.5870     1.1420	O
34	P1    -2.5040    -1.1620    -0.1300	P
35	O7    -3.0300    -0.0520    -1.0730	O
36	O8    -3.9930     1.0300     0.8980	O
37	O9    -5.3220    -0.6410    -0.2800	O	1	noname	-1
38	P2    -4.3090     0.5060    -0.4070	P
39	O10    -4.9120     1.6290    -1.2830	O	1	noname	-1
40	O11    -0.5839     6.6047    -0.2563	O
41	C11    -1.7241     5.8578    -0.7281	C
42	C12    -1.2181     4.4191    -1.0180	C
43	C13     0.2017     4.4369    -0.4468	C
44	C14     0.6026     5.9036    -0.6901	C
45	C15     1.8427     6.3542     0.1330	C
46	O12     2.0804     7.6599    -0.0464	O
47	O13     0.8916     6.0930    -2.0942	O
48	O14     0.1380     4.1789     0.9480	O
49	O15    -1.1118     4.2051    -2.4200	O
50	C16    -2.8568     5.9282     0.3271	C
51	O16    -3.3015     7.1877     0.4281	O
52	P3    -3.4878     8.0219     1.6858	P
53	O17    -4.3854     7.3275     2.6325	O
54	O18    -2.1424     8.2607     2.3275	O	1	noname	-1
55	O19    -4.0882     9.3522     1.2973	O	1	noname	-1
56	P4     3.2764     8.4345     0.4909	P
57	O20     3.3986     8.2465     1.9503	O
58	O21     4.5316     7.9511    -0.1970	O	1	noname	-1
59	O22     3.0861     9.9005     0.1817	O	1	noname	-1
60	H13    -2.0844     6.3183    -1.6546	H
61	H14    -1.8299     3.6308    -0.5666	H
62	H15     0.8791     3.7306    -0.9360	H
63	H16     1.6679     6.1718     1.1970	H
64	H17     2.7065     5.7612    -0.1861	H
65	H18     1.3836     6.9359    -2.0865	H
66	H19     0.2024     3.2099     1.0989	H
67	H20    -1.7928     3.5359    -2.6474	H
68	H21    -3.6947     5.3079     0.0002	H
69	H22    -2.4874     5.5234     1.2759	H
@<TRIPOS>BOND
1	1	2	1
2	1	3	1
3	1	8	1
4	4	5	2
5	4	9	1
6	5	6	1
7	5	7	1
8	7	8	2
9	8	10	1
10	9	10	2
11	9	14	1
12	10	11	1
13	11	12	2
14	12	13	1
15	12	14	1
16	14	28	1
17	15	16	1
18	15	17	1
19	15	26	1
20	15	31	1
21	18	19	1
22	18	24	1
23	20	21	1
24	20	22	1
25	22	23	1
26	22	24	1
27	22	28	1
28	24	25	1
29	24	26	1
30	26	27	1
31	26	30	1
32	28	29	1
33	28	30	1
34	31	34	1
35	32	34	1
36	33	34	2
37	34	35	1
38	35	38	1
39	36	38	2
40	37	38	1
41	38	39	1
42	40	41	1
43	41	42	1
44	42	43	1
45	43	44	1
46	40	44	1
47	44	45	1
48	45	46	1
49	44	47	1
50	43	48	1
51	42	49	1
52	41	50	1
53	50	51	1
54	51	52	1
55	52	53	2
56	52	54	1
57	52	55	1
58	46	56	1
59	56	57	2
60	56	58	1
61	56	59	1
62	41	60	1
63	42	61	1
64	43	62	1
65	45	63	1
66	45	64	1
67	47	65	1
68	48	66	1
69	49	67	1
70	50	68	1
71	50	69	1
@<TRIPOS>SUBSTRUCTURE
1	noname	1
