@<TRIPOS>MOLECULE

70 72
SMALL
USER_CHARGES
@<TRIPOS>ATOM
1	O1    -1.8151     0.8774    -1.4281	O
2	C1    -1.9063    -0.5470    -1.1957	C
3	C2    -2.7205    -1.1471    -2.3744	C
4	C3    -2.6876    -0.0108    -3.3979	C
5	C4    -2.7395     1.2198    -2.4784	C
6	C5    -2.3017     2.5423    -3.1586	C
7	O2    -2.3081     3.5479    -2.1589	O
8	O3    -4.0676     1.4053    -1.9529	O
9	O4    -1.4377    -0.0262    -4.0686	O
10	O5    -4.0746    -1.3586    -1.9880	O
11	C6    -0.4714    -1.1235    -1.0751	C
12	O6     0.0872    -0.6910     0.0626	O
13	P1     1.5060    -0.1959     0.2912	P
14	O7     2.4733    -1.0150    -0.4677	O
15	O8     1.8144    -0.2878     1.7665	O	1	noname	-1
16	O9     1.5980     1.2467    -0.1435	O	1	noname	-1
17	H1    -2.4339    -0.7254    -0.2516	H
18	H2    -2.3019    -2.0748    -2.7770	H
19	H3    -3.5120    -0.0421    -4.1151	H
20	H4    -1.2917     2.4658    -3.5656	H
21	H5    -2.9962     2.8148    -3.9566	H
22	H6    -2.0475     4.4066    -2.5643	H
23	H7    -4.0037     2.3104    -1.5987	H
24	H8    -1.5078    -0.6162    -4.8500	H
25	H9    -4.2064    -2.3319    -1.9624	H
26	H10    -0.5140    -2.2149    -1.0291	H
27	H11     0.1018    -0.8418    -1.9658	H
28	N1    -1.2071     3.3519    -9.1326	N
29	H12    -0.5403     3.4252    -9.9036	H
30	H13    -0.8295     2.6653    -8.4714	H
31	N2    -4.5270     1.6170   -10.5187	N
32	C7    -4.1668     2.7811   -10.9441	C
33	H14    -4.7245     3.2448   -11.6233	H
34	N3    -3.0876     3.3687   -10.5070	N
35	C8    -2.3503     2.8004    -9.6307	C
36	C9    -3.8031     1.0306    -9.6432	C
37	C10    -2.7195     1.6233    -9.1972	C
38	N4    -2.1329     0.9080    -8.3211	N
39	C11    -2.8169    -0.1622    -8.1689	C
40	H15    -2.5959    -0.8874    -7.5390	H
41	N5    -3.8980    -0.1739    -8.9842	N
42	C12    -3.0810    -3.7334    -7.2372	C
43	H16    -3.2060    -3.7178    -6.1556	H
44	H17    -2.2204    -3.1163    -7.5082	H
45	O10    -4.2020    -4.3302   -10.0932	O
46	H18    -3.5335    -4.9050    -9.6753	H
47	O11    -6.4275    -2.8070    -9.6818	O
48	H19    -7.1001    -2.1196    -9.8651	H
49	C13    -5.1905    -2.1325    -9.8273	C
50	H20    -5.0748    -1.7435   -10.8370	H
51	C14    -4.1019    -3.0747    -9.4281	C
52	H21    -3.1468    -2.5852    -9.5964	H
53	C15    -4.3510    -3.1737    -7.9328	C
54	H22    -5.2001    -3.8335    -7.7448	H
55	C16    -5.0371    -1.0683    -8.7454	C
56	H23    -5.9228    -0.4331    -8.6579	H
57	O12    -4.7503    -1.8257    -7.5184	O
58	O13    -2.8496    -5.0840    -7.6443	O
59	O14    -1.3828    -7.0814    -7.1487	O	1	noname	-1
60	O15    -0.4506    -4.8374    -7.2165	O
61	P2    -1.6215    -5.5864    -6.8389	P
62	O16    -1.8856    -5.4083    -5.3235	O
63	O17     0.5387    -5.3194    -5.0111	O
64	O18    -0.5615    -7.4953    -4.9768	O	1	noname	-1
65	P3    -0.6581    -6.0096    -4.6007	P
66	O19    -0.8317    -5.8778    -3.0694	O
67	O20     1.5934    -5.7200    -2.8649	O
68	O21     0.6280    -7.9515    -2.8133	O	1	noname	-1
69	P4     0.4470    -6.4681    -2.4200	P
70	O22     0.3268    -6.3523    -0.8845	O	1	noname	-1
@<TRIPOS>BOND
1	1	2	1
2	2	3	1
3	3	4	1
4	4	5	1
5	1	5	1
6	5	6	1
7	6	7	1
8	5	8	1
9	4	9	1
10	3	10	1
11	2	11	1
12	11	12	1
13	12	13	1
14	13	14	2
15	13	15	1
16	13	16	1
17	2	17	1
18	3	18	1
19	4	19	1
20	6	20	1
21	6	21	1
22	7	22	1
23	8	23	1
24	9	24	1
25	10	25	1
26	11	26	1
27	11	27	1
28	28	29	1
29	28	30	1
30	28	35	1
31	31	32	2
32	31	36	1
33	32	33	1
34	32	34	1
35	34	35	2
36	35	37	1
37	36	37	2
38	36	41	1
39	37	38	1
40	38	39	2
41	39	40	1
42	39	41	1
43	41	55	1
44	42	43	1
45	42	44	1
46	42	53	1
47	42	58	1
48	45	46	1
49	45	51	1
50	47	48	1
51	47	49	1
52	49	50	1
53	49	51	1
54	49	55	1
55	51	52	1
56	51	53	1
57	53	54	1
58	53	57	1
59	55	56	1
60	55	57	1
61	58	61	1
62	59	61	1
63	60	61	2
64	61	62	1
65	62	65	1
66	63	65	2
67	64	65	1
68	65	66	1
69	66	69	1
70	67	69	2
71	68	69	1
72	69	70	1
@<TRIPOS>SUBSTRUCTURE
1	noname	1
