@<TRIPOS>MOLECULE

93 96
SMALL
USER_CHARGES
@<TRIPOS>ATOM
1	O1     1.4439    -2.0025    -1.7871	O
2	C1     0.1101    -2.1939    -1.5887	C
3	C2    -0.6883    -1.0040    -1.8737	C
4	C3    -1.3726    -0.3510    -0.6159	C
5	C4    -0.3179     0.2544     0.3830	C
6	C5    -0.8744     0.7481     1.6541	C
7	O2    -0.5291    -0.0325     2.7223	O
8	O3    -0.6376    -3.1734    -1.2152	O
9	C6    -2.3770     0.5978    -1.1014	C
10	O4    -3.4322     0.1725    -1.5782	O
11	O5    -2.1732     1.8179    -1.1677	O
12	O6    -1.5739     1.8205     1.4995	O
13	O7     0.4280     1.2892    -0.2629	O
14	H1     1.6944    -1.2048    -2.0516	H
15	H2    -1.4456    -1.3009    -2.6099	H
16	H3    -0.0800    -0.2368    -2.3688	H
17	H4    -1.9110    -1.1374    -0.0712	H
18	H5     0.4114    -0.5313     0.6030	H
19	H6    -0.0230    -0.7292     2.5622	H
20	H7    -2.7127     2.1822    -1.7472	H
21	H8     1.3092     0.9206    -0.5016	H
22	C7    -8.5876     5.9607    -4.3490	C
23	C8    -7.8995     6.7734    -3.5081	C
24	N1    -7.1212     6.3282    -2.5149	N	1	noname	1
25	C9    -6.9603     5.0186    -2.3223	C
26	C10    -7.5647     4.0977    -3.0952	C
27	C11    -8.4332     4.5015    -4.1916	C
28	C12    -9.4200     6.4673    -5.3201	C
29	O8    -9.2597     5.8885    -6.4543	O
30	N2   -10.2652     7.4959    -4.8533	N
31	C13    -6.4585     7.2786    -1.6729	C
32	O9    -6.2085     6.8517    -0.3104	O
33	C14    -4.9246     7.3514     0.1254	C
34	C15    -4.4521     8.3234    -0.9736	C
35	C16    -5.0739     7.6928    -2.2106	C
36	O10    -5.0152     8.6680    -3.2348	O
37	O11    -3.0628     8.4391    -1.2164	O
38	C17    -4.9078     7.9133     1.5689	C
39	O12    -4.5207     9.1935     1.5704	O
40	P1    -4.5628    10.1577     2.7519	P
41	O13    -5.9771    10.3510     3.1516	O
42	O14    -3.9659    11.4890     2.2487	O
43	O15    -3.8038     9.5004     3.9224	O
44	P2    -3.3448    10.2167     5.1866	P
45	O16    -2.8566    11.5682     4.8273	O
46	O17    -4.5387    10.3529     6.1613	O
47	O18    -2.1444     9.4024     5.7392	O
48	C18    -0.9293     9.3380     5.1829	C
49	C19    -0.0213     8.3312     5.9311	C
50	O19     0.9873     7.3475     5.6129	O
51	C20     1.6452     6.9322     6.8337	C
52	C21     0.7169     7.3892     7.9743	C
53	C22     0.2191     8.7103     7.4066	C
54	O20    -0.8887     9.1158     8.1861	O
55	O21     1.2921     7.6765     9.2371	O
56	N3     1.9012     5.5192     6.8633	N
57	C23     3.8262     2.6459     7.5687	C
58	N4     4.9622     3.1794     8.0969	N
59	C24     5.1336     4.5246     8.2353	C
60	N5     4.1561     5.3885     7.8431	N
61	C25     2.8109     3.5298     7.1616	C
62	N6     1.6001     3.3161     6.6299	N
63	C26     3.0071     4.8990     7.3101	C
64	C27     1.0622     4.5388     6.4569	C
65	N7     3.7083     1.3462     7.4580	N
66	H9    -7.9830     7.7577    -3.6410	H
67	H10    -6.3766     4.6804    -1.5908	H
68	H11    -7.4215     3.1290    -2.9208	H
69	H12    -8.9433     3.9438    -4.7275	H
70	H13   -10.8694     7.9066    -5.4350	H
71	H14   -10.2097     7.7628    -3.9586	H
72	H15    -7.0743     8.1813    -1.5642	H
73	H16    -4.2306     6.5059     0.1716	H
74	H17    -4.8549     9.3294    -0.8026	H
75	H18    -4.5095     6.8090    -2.5276	H
76	H19    -5.7156     8.4711    -3.8928	H
77	H20    -2.6012     8.4902    -0.3513	H
78	H21    -5.9156     7.8196     1.9870	H
79	H22    -4.2188     7.3189     2.1779	H
80	H23    -4.2375    11.8100     1.4746	H
81	H24    -5.2438    10.8501     5.9819	H
82	H25    -0.4649    10.3275     5.2207	H
83	H26    -1.0076     9.0304     4.1350	H
84	H27    -1.0072     7.8638     5.8339	H
85	H28     2.5906     7.4840     6.8994	H
86	H29    -0.1043     6.6762     8.1136	H
87	H30     0.9938     9.4817     7.4827	H
88	H31    -1.4097     9.7613     7.6609	H
89	H32     1.9247     6.9600     9.4622	H
90	H33     5.9993     4.8842     8.6347	H
91	H34     0.1310     4.6931     6.0673	H
92	H35     4.3935     0.7856     7.7640	H
93	H36     2.9418     0.9730     7.0740	H
@<TRIPOS>BOND
1	1	2	1
2	2	3	1
3	3	4	1
4	4	5	1
5	5	6	1
6	6	7	1
7	2	8	2
8	4	9	1
9	9	10	2
10	9	11	1
11	6	12	2
12	5	13	1
13	1	14	1
14	3	15	1
15	3	16	1
16	4	17	1
17	5	18	1
18	7	19	1
19	11	20	1
20	13	21	1
21	22	23	1
22	22	27	2
23	23	24	2
24	24	25	1
25	25	26	2
26	26	27	1
27	22	28	1
28	28	29	2
29	28	30	1
30	24	31	1
31	35	31	1
32	32	31	1
33	32	33	1
34	33	34	1
35	34	35	1
36	35	36	1
37	34	37	1
38	33	38	1
39	38	39	1
40	39	40	1
41	40	41	2
42	40	42	1
43	40	43	1
44	43	44	1
45	44	45	2
46	44	46	1
47	44	47	1
48	47	48	1
49	48	49	1
50	53	49	1
51	50	49	1
52	50	51	1
53	51	52	1
54	52	53	1
55	53	54	1
56	52	55	1
57	51	56	1
58	63	56	1
59	56	64	1
60	57	58	2
61	57	61	1
62	58	59	1
63	59	60	2
64	60	63	1
65	63	61	2
66	62	61	1
67	62	64	2
68	57	65	1
69	23	66	1
70	25	67	1
71	26	68	1
72	27	69	1
73	30	70	1
74	30	71	1
75	31	72	1
76	33	73	1
77	34	74	1
78	35	75	1
79	36	76	1
80	37	77	1
81	38	78	1
82	38	79	1
83	42	80	1
84	46	81	1
85	48	82	1
86	48	83	1
87	49	84	1
88	51	85	1
89	52	86	1
90	53	87	1
91	54	88	1
92	55	89	1
93	59	90	1
94	64	91	1
95	65	92	1
96	65	93	1
@<TRIPOS>SUBSTRUCTURE
1	noname	1
