@<TRIPOS>MOLECULE

93 94
SMALL
USER_CHARGES
@<TRIPOS>ATOM
1	O1    -0.5471    -0.6404    -1.6035	O
2	C1    -1.3940     0.1904    -0.9344	C
3	C2    -0.7048     0.9698     0.0891	C
4	C3    -0.5408     0.1649     1.4114	C
5	C4     0.1923     0.8789     2.4647	C
6	C5     1.5434     1.1609     2.4351	C
7	O2     1.9611     1.9338     3.4919	O
8	O3    -2.6542     0.4520    -0.9671	O
9	O4     2.1367     0.6291     1.4189	O
10	O5    -0.4723     1.1991     3.4464	O
11	H1     0.2988    -0.6183    -1.3713	H
12	H2     0.2703     1.2783    -0.2971	H
13	H3    -1.2497     1.8946     0.3051	H
14	H4    -1.5443    -0.0959     1.7657	H
15	H5    -0.0275    -0.7811     1.2162	H
16	H6     1.3595     2.1833     4.0819	H
17	C6    -0.7678    -1.7732    -9.4458	C
18	C7     0.5459    -1.5196    -9.2208	C
19	N1     1.0135    -0.9595    -8.0991	N
20	C8     0.1799    -0.6432    -7.1075	C
21	C9    -1.1458    -0.8598    -7.1850	C
22	C10    -1.7332    -1.4583    -8.3751	C
23	C11    -1.2060    -2.2991   -10.6393	C
24	O6    -2.0502    -3.2518   -10.4750	O
25	N2    -0.6411    -1.6716   -11.7695	N
26	C12     2.4199    -0.7165    -7.9784	C
27	O7     2.7991     0.4110    -7.1502	O
28	C13     3.9953     0.0852    -6.4077	C
29	C14     4.4972    -1.2556    -6.9785	C
30	C15     3.1856    -1.9136    -7.3798	C
31	O8     3.5188    -2.9926    -8.2330	O
32	O9     5.1644    -2.1490    -6.1072	O
33	C16     5.0455     1.2223    -6.3464	C
34	O10     6.2087     0.8163    -6.8667	O
35	P1     7.4239     1.6862    -7.1734	P
36	O11     7.0460     2.6731    -8.2129	O
37	O12     8.5139     0.7363    -7.7133	O
38	O13     7.7964     2.4449    -5.8834	O
39	P2     9.1048     3.1894    -5.6470	P
40	O14    10.2181     2.4120    -6.2387	O
41	O15     9.0369     4.5759    -6.3304	O
42	O16     9.3116     3.2325    -4.1092	O
43	C17     9.6228     2.1834    -3.3391	C
44	C18     9.6230     2.5681    -1.8392	C
45	O17     9.2359     1.9826    -0.5767	O
46	C19     9.7640     2.7909     0.5017	C
47	C20    10.1409     4.1375    -0.1434	C
48	C21    10.6579     3.6575    -1.4916	C
49	O18    10.7538     4.7879    -2.3355	O
50	O19    11.1800     4.8997     0.4463	O
51	N3     8.8291     2.9393     1.5821	N
52	C22     7.8932     3.1247     4.9805	C
53	N4     9.0816     2.9435     5.6198	N
54	C23    10.2467     2.7471     4.9397	C
55	N5    10.2554     2.7269     3.5776	N
56	C24     7.8921     3.1064     3.5741	C
57	N6     6.9084     3.2649     2.6791	N
58	C25     9.0919     2.9026     2.9001	C
59	C26     7.4989     3.1610     1.4730	C
60	N7     6.8010     3.3115     5.6786	N
61	H7     1.1959    -1.7649    -9.9355	H
62	H8     0.5217    -0.2340    -6.2673	H
63	H9    -1.7371    -0.6099    -6.4250	H
64	H10    -2.2481    -2.3724    -8.0616	H
65	H11    -2.4803    -0.7627    -8.7644	H
66	H12    -0.8739    -1.9548   -12.6284	H
67	H13    -0.0298    -0.9743   -11.6477	H
68	H14     2.8493    -0.4852    -8.9623	H
69	H15     3.7138    -0.0600    -5.3597	H
70	H16     5.1364    -1.0905    -7.8547	H
71	H17     2.6567    -2.3031    -6.5030	H
72	H18     2.7446    -3.1900    -8.8022	H
73	H19     5.7988    -1.6339    -5.5628	H
74	H20     4.6573     2.0806    -6.9050	H
75	H21     5.1919     1.5204    -5.3031	H
76	H22     8.2944     0.1442    -8.3273	H
77	H23     8.9917     4.6722    -7.2053	H
78	H24    10.6187     1.8221    -3.6108	H
79	H25     8.9041     1.3722    -3.4945	H
80	H26     8.7422     3.0371    -2.2908	H
81	H27    10.6757     2.2995     0.8623	H
82	H28     9.2553     4.7740    -0.2555	H
83	H29    11.6569     3.2187    -1.3902	H
84	H30    10.7642     4.4730    -3.2653	H
85	H31    11.0425     4.9154     1.4183	H
86	H32    11.1154     2.6145     5.4554	H
87	H33     6.9925     3.2441     0.5902	H
88	H34     6.8421     3.3445     6.6137	H
89	H35     5.9771     3.4123     5.2479	H
90	H36    -6.7443    -2.3634    -5.2040	H	1	noname	1
91	C27    -4.6425     1.4021     3.7242	C
92	O20    -3.9834     1.5549     4.6565	O
93	O21    -5.3017     1.2492     2.7918	O
@<TRIPOS>BOND
1	1	2	1
2	2	3	1
3	3	4	1
4	4	5	1
5	5	6	1
6	6	7	1
7	2	8	2
8	6	9	2
9	5	10	2
10	1	11	1
11	3	12	1
12	3	13	1
13	4	14	1
14	4	15	1
15	7	16	1
16	17	18	2
17	17	22	1
18	18	19	1
19	19	20	1
20	20	21	2
21	21	22	1
22	17	23	1
23	23	24	2
24	23	25	1
25	19	26	1
26	30	26	1
27	27	26	1
28	27	28	1
29	28	29	1
30	29	30	1
31	30	31	1
32	29	32	1
33	28	33	1
34	33	34	1
35	34	35	1
36	35	36	2
37	35	37	1
38	35	38	1
39	38	39	1
40	39	40	2
41	39	41	1
42	39	42	1
43	42	43	1
44	43	44	1
45	48	44	1
46	45	44	1
47	45	46	1
48	46	47	1
49	47	48	1
50	48	49	1
51	47	50	1
52	46	51	1
53	58	51	1
54	51	59	1
55	52	53	2
56	52	56	1
57	53	54	1
58	54	55	2
59	55	58	1
60	58	56	2
61	57	56	1
62	57	59	2
63	52	60	1
64	18	61	1
65	20	62	1
66	21	63	1
67	22	64	1
68	22	65	1
69	25	66	1
70	25	67	1
71	26	68	1
72	28	69	1
73	29	70	1
74	30	71	1
75	31	72	1
76	32	73	1
77	33	74	1
78	33	75	1
79	37	76	1
80	41	77	1
81	43	78	1
82	43	79	1
83	44	80	1
84	46	81	1
85	47	82	1
86	48	83	1
87	49	84	1
88	50	85	1
89	54	86	1
90	59	87	1
91	60	88	1
92	60	89	1
93	91	92	2
94	91	93	2
@<TRIPOS>SUBSTRUCTURE
1	noname	1
