@<TRIPOS>MOLECULE

30 28
SMALL
USER_CHARGES
@<TRIPOS>ATOM
1	O1    -3.1173     5.3275    -3.1155	O
2	C1    -2.7994     4.0960    -3.5654	C
3	C2    -3.8163     3.1284    -3.1958	C
4	C3    -5.1592     3.3104    -3.5655	C
5	O2    -5.6374     2.1118    -4.1631	O
6	O3    -3.4540     2.1745    -2.5025	O
7	P1    -2.4666     6.6566    -3.4681	P
8	O4    -3.1911     7.7486    -2.7854	O
9	O5    -2.5246     6.8687    -4.9636	O	1	noname	-1
10	O6    -1.0237     6.6455    -3.0211	O	1	noname	-1
11	H1    -1.7860     3.8451    -3.1034	H
12	H2    -2.6415     4.0957    -4.6369	H
13	H3    -5.2754     4.1234    -4.2858	H
14	H4    -5.7697     3.5355    -2.6883	H
15	H5    -6.4862     2.3222    -4.6070	H
16	P2     0.0086    -2.7738     0.5899	P
17	O7    -1.4518    -2.9071     0.1802	O
18	C4    -2.0866    -2.3124    -0.8379	C
19	C5    -3.5581    -2.8050    -0.8877	C
20	C6    -4.3650    -2.0997    -1.8663	C
21	O8    -5.4846    -2.4872    -2.1669	O
22	O9    -3.5861    -4.1995    -1.1847	O
23	O10     0.7470    -4.0294     0.1877	O	1	noname	-1
24	O11     0.0698    -2.6337     2.0945	O	1	noname	-1
25	O12     0.6425    -1.5980    -0.0413	O
26	H6    -1.5927    -2.5440    -1.7869	H
27	H7    -2.0719    -1.2284    -0.6895	H
28	H8    -4.0137    -2.6625     0.0946	H
29	H9    -4.0402    -1.2626    -2.2871	H
30	H10    -2.9157    -4.6413    -0.6209	H
@<TRIPOS>BOND
1	1	2	1
2	2	3	1
3	3	4	1
4	4	5	1
5	3	6	2
6	1	7	1
7	7	8	2
8	7	9	1
9	7	10	1
10	2	11	1
11	2	12	1
12	4	13	1
13	4	14	1
14	5	15	1
15	16	17	1
16	17	18	1
17	18	19	1
18	19	20	1
19	20	21	2
20	19	22	1
21	16	23	1
22	16	24	1
23	16	25	2
24	18	26	1
25	18	27	1
26	19	28	1
27	20	29	1
28	22	30	1
@<TRIPOS>SUBSTRUCTURE
1	noname	1
