@<TRIPOS>MOLECULE

30 30
SMALL
USER_CHARGES
@<TRIPOS>ATOM
1	O1    -1.5576     0.7977    -1.4806	O
2	C1    -1.8464    -0.5845    -1.1864	C
3	C2    -2.7113    -1.1130    -2.3623	C
4	C3    -2.6473     0.0342    -3.3733	C
5	C4    -2.5413     1.2517    -2.4365	C
6	C5    -2.0608     2.5466    -3.1513	C
7	O2    -1.8951     3.5402    -2.2687	O
8	O3    -3.8335     1.5100    -1.8411	O
9	O4    -1.4566    -0.0929    -4.1363	O
10	O5    -4.0675    -1.2497    -1.9567	O
11	C6    -0.5175    -1.3553    -0.9837	C
12	O6     0.1033    -0.9031     0.1138	O
13	P1     1.5468    -0.4477     0.2583	P
14	O7     2.4679    -1.5230    -0.1657	O
15	O8     1.7658     0.7849    -0.5853	O	1	noname	-1
16	O9     1.8005    -0.1016     1.7064	O	1	noname	-1
17	P2    -1.5568     4.9871    -2.6023	P
18	O10    -0.3460     5.0520    -3.4448	O
19	O11    -2.7231     5.6157    -3.3283	O	1	noname	-1
20	O12    -1.3213     5.7414    -1.3152	O	1	noname	-1
21	H1    -2.4198    -0.6309    -0.2540	H
22	H2    -2.3543    -2.0555    -2.7911	H
23	H3    -3.5197     0.0866    -4.0316	H
24	H4    -1.1078     2.3607    -3.6543	H
25	H5    -2.8054     2.8250    -3.9047	H
26	H6    -3.7239     2.4215    -1.5099	H
27	H7    -1.6406    -0.6423    -4.9301	H
28	H8    -4.2601    -2.2122    -1.9643	H
29	H9    -0.7340    -2.4147    -0.8272	H
30	H10     0.0901    -1.2656    -1.8911	H
@<TRIPOS>BOND
1	1	2	1
2	2	3	1
3	3	4	1
4	4	5	1
5	1	5	1
6	5	6	1
7	6	7	1
8	5	8	1
9	4	9	1
10	3	10	1
11	2	11	1
12	11	12	1
13	12	13	1
14	13	14	2
15	13	15	1
16	13	16	1
17	7	17	1
18	17	18	2
19	17	19	1
20	17	20	1
21	2	21	1
22	3	22	1
23	4	23	1
24	6	24	1
25	6	25	1
26	8	26	1
27	9	27	1
28	10	28	1
29	11	29	1
30	11	30	1
@<TRIPOS>SUBSTRUCTURE
1	noname	1
