@<TRIPOS>MOLECULE

171 176
SMALL
USER_CHARGES
@<TRIPOS>ATOM
1	C1     0.7126   -11.2801     0.6156	C
2	C2     1.6832   -12.2155     0.7708	C
3	N1     2.8886   -12.1386     0.1952	N	1	noname	1
4	C3     3.2080   -11.0858    -0.5583	C
5	C4     2.3508   -10.0725    -0.7796	C
6	C5     1.0176   -10.0852    -0.1949	C
7	C6    -0.5316   -11.4319     1.1827	C
8	O1    -0.9437   -10.3599     1.7556	O
9	N2    -1.0774   -12.7200     1.0006	N
10	C7     3.8295   -13.1969     0.4104	C
11	O2     4.7732   -13.4337    -0.6641	O
12	C8     6.0634   -13.7733    -0.1089	C
13	C9     5.8384   -13.9598     1.4045	C
14	C10     4.7085   -12.9730     1.6574	C
15	O3     4.1686   -13.2927     2.9262	O
16	O4     6.8925   -13.6240     2.2869	O
17	C11     6.7874   -14.9393    -0.8271	C
18	O5     7.0382   -15.9354     0.0293	O
19	P1     7.5514   -17.3295    -0.3181	P
20	O6     6.5374   -18.0080    -1.1601	O
21	O7     7.7177   -18.0783     1.0211	O
22	O8     8.8453   -17.1627    -1.1405	O
23	P2     9.8447   -18.2723    -1.4434	P
24	O9     9.9912   -19.1323    -0.2463	O
25	O10     9.3195   -19.1288    -2.6201	O
26	O11    11.2067   -17.5748    -1.7045	O
27	C12    11.9614   -16.9755    -0.7765	C
28	C13    13.1866   -16.2758    -1.4146	C
29	O12    13.9459   -15.0599    -1.2378	O
30	C14    15.1641   -15.1452    -2.0150	C
31	C15    14.9311   -16.2924    -3.0157	C
32	C16    14.1297   -17.2514    -2.1477	C
33	O13    13.5603   -18.2223    -3.0034	O
34	O14    16.0562   -17.0116    -3.4901	O
35	N3    15.4870   -13.9048    -2.6633	N
36	C17    17.6764   -11.3723    -3.7824	C
37	N4    18.8858   -11.8187    -3.3440	N
38	C18    19.0189   -12.9850    -2.6510	C
39	N5    17.9270   -13.7508    -2.3731	N
40	C19    16.5433   -12.1565    -3.5011	C
41	N6    15.2482   -11.9962    -3.8030	N
42	C20    16.7013   -13.3423    -2.7910	C
43	C21    14.6224   -13.0708    -3.2855	C
44	N7    17.6004   -10.2457    -4.4459	N
45	H1     1.4813   -13.0039     1.3462	H
46	H2     4.1055   -11.0181    -0.9828	H
47	H3     2.6241    -9.3036    -1.3484	H
48	H4     0.3404    -9.4718    -0.3483	H
49	H5    -1.9196   -12.9259     1.3477	H
50	H6    -0.5850   -13.3635     0.5335	H
51	H7     3.3028   -14.1538     0.5228	H
52	H8     6.7333   -12.9213    -0.2642	H
53	H9     5.5193   -14.9855     1.6268	H
54	H10     5.0827   -11.9436     1.6787	H
55	H11     3.2431   -12.9693     2.9611	H
56	H12     7.7302   -13.9779     1.9165	H
57	H13     6.1483   -15.2910    -1.6439	H
58	H14     7.7277   -14.5717    -1.2510	H
59	H15     7.0659   -18.0398     1.6124	H
60	H16     8.5933   -19.6243    -2.5596	H
61	H17    12.3153   -17.7254    -0.0633	H
62	H18    11.3731   -16.2290    -0.2330	H
63	H19    12.3237   -16.0583    -2.0535	H
64	H20    15.9708   -15.4282    -1.3282	H
65	H21    14.3465   -15.9431    -3.8750	H
66	H22    14.7821   -17.7643    -1.4319	H
67	H23    12.8035   -18.6351    -2.5335	H
68	H24    16.7578   -16.3689    -3.7327	H
69	H25    19.9418   -13.2839    -2.3394	H
70	H26    13.6161   -13.2266    -3.3629	H
71	H27    18.3789    -9.7619    -4.6389	H
72	H28    16.7709    -9.9201    -4.7292	H
73	C22     8.5233    -6.8816    -0.7391	C
74	C23     9.0876    -5.4391    -0.5105	C
75	C24     8.7304    -4.5802    -1.7722	C
76	C25    10.6521    -5.5310    -0.4290	C
77	O15    11.0246    -6.0531     0.7463	O
78	P3    12.4075    -6.5535     1.1452	P
79	O16    12.4714    -6.6048     2.6526	O	1	noname	-1
80	O17    12.6081    -7.9077     0.5930	O
81	O18    13.4372    -5.5587     0.6441	O
82	P4    14.7992    -5.7855     0.0091	P
83	O19    14.8280    -7.0598    -0.8009	O	1	noname	-1
84	O20    15.8434    -5.8270     1.0524	O
85	O21    15.0682    -4.6234    -0.9407	O
86	C26    14.1530    -4.0660    -1.7465	C
87	C27    14.8016    -3.0387    -2.7100	C
88	O22    15.7335    -2.2119    -1.9922	O
89	C28    15.4372    -0.8167    -2.1500	C
90	C29    15.7961    -0.1893    -0.7683	C
91	C30    13.9242    -0.8383    -2.4911	C
92	O23    13.1778    -1.0354    -1.2972	O
93	C31    13.7726    -2.0870    -3.3825	C
94	O24    14.0826    -1.7840    -4.6556	O
95	P5    13.8010    -2.5897    -5.9176	P
96	O25    14.5264    -3.9128    -5.8627	O	1	noname	-1
97	O26    12.3179    -2.8517    -6.0326	O	1	noname	-1
98	O27    14.2675    -1.8274    -7.0948	O
99	N8    16.1951    -0.1540    -3.2011	N
100	C32    16.2085     1.1821    -3.4403	C
101	N9    16.9952     1.5137    -4.4782	N
102	C33    17.4886     0.3559    -4.9266	C
103	C34    16.9996    -0.6873    -4.1447	C
104	N10    17.3401    -1.9708    -4.4250	N
105	C35    18.1585    -2.2427    -5.4793	C
106	N11    18.6538    -1.2289    -6.2457	N
107	C36    18.3504     0.0753    -6.0006	C
108	N12    18.8478     1.0297    -6.7482	N
109	C37     8.5026    -4.8384     0.8368	C
110	O28     9.3743    -3.8667     1.4112	O
111	C38     7.1285    -4.3518     0.7720	C
112	O29     6.2196    -5.1673     0.9377	O
113	N13     6.7400    -3.1276     0.5326	N
114	C39     7.4180    -1.9376     0.2465	C
115	C40     6.7818    -1.2511    -0.9947	C
116	C41     7.2941     0.0985    -1.2152	C
117	O30     8.4757     0.2066    -1.5484	O
118	N14     6.6228     1.2236    -1.1268	N
119	C42     5.3290     1.4916    -0.6657	C
120	C43     5.3264     2.7562     0.2241	C
121	S1     3.6679     3.1491     0.8274	S
122	H29     7.4360    -6.8697    -0.8226	H
123	H30     8.9247    -7.3126    -1.6576	H
124	H31     8.7933    -7.5447     0.0846	H
125	H32     9.1076    -3.5612    -1.6708	H
126	H33     7.6494    -4.5430    -1.9357	H
127	H34     9.1790    -5.0065    -2.6715	H
128	H35    11.0862    -4.5291    -0.5099	H
129	H36    11.0384    -6.1221    -1.2670	H
130	H37    13.6440    -4.8284    -2.3474	H
131	H38    13.4051    -3.5650    -1.1278	H
132	H39    15.3652    -3.6036    -3.4537	H
133	H40    15.4072     0.8263    -0.6885	H
134	H41    16.8808    -0.1625    -0.6427	H
135	H42    15.3793    -0.7786     0.0520	H
136	H43    13.5872     0.0774    -2.9840	H
137	H44    12.2851    -0.6463    -1.4241	H
138	H45    12.7446    -2.4639    -3.3244	H
139	H46    15.6881     1.8792    -2.9040	H
140	H47    18.4000    -3.2092    -5.6964	H
141	H48    18.6426     1.9241    -6.5666	H
142	H49    19.4149     0.8220    -7.4616	H
143	H50     8.5162    -5.6261     1.5984	H
144	H51     8.8052    -3.2089     1.8604	H
145	H52     5.8146    -3.0744     0.4963	H
146	H53     8.4837    -2.0725     0.0608	H
147	H54     7.3069    -1.2873     1.1171	H
148	H55     5.6948    -1.2458    -0.8920	H
149	H56     7.0006    -1.8499    -1.8847	H
150	H57     7.1357     1.9412    -1.4116	H
151	H58     4.6876     1.6558    -1.5344	H
152	H59     4.9107     0.6691    -0.0865	H
153	H60     5.9762     2.6039     1.0888	H
154	H61     5.6924     3.6150    -0.3415	H
155	H62     3.1718     3.3857    -0.4187	H
156	O31    -4.0788    -3.3069     1.0403	O
157	C44    -3.9116    -2.2740     0.1683	C
158	C45    -2.5855    -2.2783    -0.4412	C
159	C46    -1.5282    -1.5991     0.4775	C
160	C47    -0.1616    -1.6183    -0.0597	C
161	C48     0.6249    -2.7466    -0.1791	C
162	O32     1.8217    -2.5109    -0.8121	O
163	O33    -4.6244    -1.2844    -0.2442	O
164	O34     0.0714    -3.7915     0.3397	O
165	O35     0.2951    -0.5244    -0.3802	O
166	H63    -3.4039    -3.8592     1.1378	H
167	H64    -2.2992    -3.3105    -0.6595	H
168	H65    -2.5998    -1.7592    -1.4052	H
169	H66    -1.8503    -0.5649     0.6428	H
170	H67    -1.5181    -2.0793     1.4603	H
171	H68     1.9881    -1.6925    -1.0855	H
@<TRIPOS>BOND
1	1	2	1
2	1	6	2
3	2	3	2
4	3	4	1
5	4	5	2
6	5	6	1
7	1	7	1
8	7	8	2
9	7	9	1
10	3	10	1
11	14	10	1
12	11	10	1
13	11	12	1
14	12	13	1
15	13	14	1
16	14	15	1
17	13	16	1
18	12	17	1
19	17	18	1
20	18	19	1
21	19	20	2
22	19	21	1
23	19	22	1
24	22	23	1
25	23	24	2
26	23	25	1
27	23	26	1
28	26	27	1
29	27	28	1
30	32	28	1
31	29	28	1
32	29	30	1
33	30	31	1
34	31	32	1
35	32	33	1
36	31	34	1
37	30	35	1
38	42	35	1
39	35	43	1
40	36	37	2
41	36	40	1
42	37	38	1
43	38	39	2
44	39	42	1
45	42	40	2
46	41	40	1
47	41	43	2
48	36	44	1
49	2	45	1
50	4	46	1
51	5	47	1
52	6	48	1
53	9	49	1
54	9	50	1
55	10	51	1
56	12	52	1
57	13	53	1
58	14	54	1
59	15	55	1
60	16	56	1
61	17	57	1
62	17	58	1
63	21	59	1
64	25	60	1
65	27	61	1
66	27	62	1
67	28	63	1
68	30	64	1
69	31	65	1
70	32	66	1
71	33	67	1
72	34	68	1
73	38	69	1
74	43	70	1
75	44	71	1
76	44	72	1
77	73	74	1
78	74	75	1
79	74	76	1
80	74	109	1
81	76	77	1
82	77	78	1
83	78	79	1
84	78	80	2
85	78	81	1
86	81	82	1
87	82	83	1
88	82	84	2
89	82	85	1
90	85	86	1
91	86	87	1
92	87	88	1
93	87	93	1
94	88	89	1
95	89	90	1
96	89	91	1
97	89	99	1
98	91	92	1
99	91	93	1
100	93	94	1
101	94	95	1
102	95	96	1
103	95	97	1
104	95	98	2
105	99	100	1
106	99	103	1
107	100	101	2
108	101	102	1
109	102	103	2
110	102	107	1
111	103	104	1
112	104	105	2
113	105	106	1
114	106	107	2
115	107	108	1
116	109	110	1
117	109	111	1
118	111	112	2
119	111	113	1
120	113	114	1
121	114	115	1
122	115	116	1
123	116	117	2
124	116	118	1
125	118	119	1
126	119	120	1
127	120	121	1
128	73	122	1
129	73	123	1
130	73	124	1
131	75	125	1
132	75	126	1
133	75	127	1
134	76	128	1
135	76	129	1
136	86	130	1
137	86	131	1
138	87	132	1
139	90	133	1
140	90	134	1
141	90	135	1
142	91	136	1
143	92	137	1
144	93	138	1
145	100	139	1
146	105	140	1
147	108	141	1
148	108	142	1
149	109	143	1
150	110	144	1
151	113	145	1
152	114	146	1
153	114	147	1
154	115	148	1
155	115	149	1
156	118	150	1
157	119	151	1
158	119	152	1
159	120	153	1
160	120	154	1
161	121	155	1
162	156	157	1
163	157	158	1
164	158	159	1
165	159	160	1
166	160	161	1
167	161	162	1
168	157	163	2
169	161	164	2
170	160	165	2
171	156	166	1
172	158	167	1
173	158	168	1
174	159	169	1
175	159	170	1
176	162	171	1
@<TRIPOS>SUBSTRUCTURE
1	noname	1
