@<TRIPOS>MOLECULE

171 175
SMALL
USER_CHARGES
@<TRIPOS>ATOM
1	C1    -7.4881    -3.6590     2.5871	C
2	C2    -6.5207    -4.6073     2.5110	C
3	N1    -5.2710    -4.3631     2.0996	N
4	C3    -4.9035    -3.1261     1.7634	C
5	C4    -5.7535    -2.0842     1.8128	C
6	C5    -7.1322    -2.2690     2.2426	C
7	C6    -8.7745    -3.9707     2.9626	C
8	O1    -9.2510    -3.1399     3.8170	O
9	N2    -9.2828    -5.1201     2.3217	N
10	C7    -4.3364    -5.4467     2.0371	C
11	O2    -3.2996    -5.3316     1.0307	O
12	C8    -2.0574    -5.8526     1.5541	C
13	C9    -2.4101    -6.5215     2.8971	C
14	C10    -3.5726    -5.6563     3.3601	C
15	O3    -4.2156    -6.3665     4.4019	O
16	O4    -1.4417    -6.5084     3.9289	O
17	C11    -1.2561    -6.7289     0.5593	C
18	O5    -1.0655    -7.9542     1.0603	O
19	P1    -0.5030    -9.1645     0.3213	P
20	O6    -1.4296    -9.5151    -0.7814	O
21	O7    -0.4423   -10.3131     1.3503	O
22	O8     0.8548    -8.7556    -0.2851	O
23	P2     1.8935    -9.7188    -0.8468	P
24	O9     1.9485   -10.9256     0.0103	O
25	O10     1.4855   -10.1347    -2.2801	O
26	O11     3.2621    -8.9935    -0.7455	O
27	C12     3.9243    -8.7423     0.3898	C
28	C13     5.1894    -7.8895     0.1253	C
29	O12     5.9120    -6.8095     0.7562	O
30	C14     7.1942    -6.6527     0.1030	C
31	C15     7.0664    -7.4051    -1.2346	C
32	C16     6.2074    -8.5842    -0.8020	C
33	O13     5.7292    -9.2129    -1.9747	O
34	O14     8.2393    -7.9450    -1.8187	O
35	N3     7.5533    -5.2730    -0.0723	N
36	C17     9.7929    -2.5448    -0.1047	C
37	N4    10.9662    -3.1273     0.2666	N
38	C18    11.0564    -4.4581     0.5480	C
39	N5     9.9563    -5.2572     0.4635	N
40	C19     8.6516    -3.3618    -0.1957	C
41	N6     7.3854    -3.0932    -0.5398	N
42	C20     8.7655    -4.7169     0.0977	C
43	C21     6.7334    -4.2690    -0.4596	C
44	N7     9.7577    -1.2621    -0.3665	N
45	H1    -6.7598    -5.5378     2.7764	H
46	H2    -3.9737    -2.9358     1.4645	H
47	H3    -5.4436    -1.1752     1.5535	H
48	H4    -7.2943    -1.6206     3.1099	H
49	H5    -7.7824    -1.9262     1.4344	H
50	H6   -10.1487    -5.4164     2.5075	H
51	H7    -8.7419    -5.5819     1.7143	H
52	H8    -4.8563    -6.3801     1.7834	H
53	H9    -1.3896    -5.0064     1.7453	H
54	H10    -2.7316    -7.5589     2.7425	H
55	H11    -3.2173    -4.6961     3.7501	H
56	H12    -5.1455    -6.0594     4.4603	H
57	H13    -0.5698    -6.7333     3.5373	H
58	H14    -1.8165    -6.7844    -0.3800	H
59	H15    -0.2884    -6.2560     0.3627	H
60	H16    -1.1434   -10.4613     1.8625	H
61	H17     0.7643   -10.6124    -2.4487	H
62	H18     4.2263    -9.6894     0.8458	H
63	H19     3.2797    -8.2069     1.0945	H
64	H20     4.3821    -7.4625    -0.4795	H
65	H21     7.9425    -7.1565     0.7266	H
66	H22     6.5534    -6.7854    -1.9794	H
67	H23     6.8028    -9.3125    -0.2400	H
68	H24     4.9409    -9.7461    -1.7338	H
69	H25     8.9494    -7.2683    -1.7754	H
70	H26    11.9532    -4.8557     0.8234	H
71	H27     5.7402    -4.3765    -0.6710	H
72	H28    10.5425    -0.7528    -0.3218	H
73	H29     8.9511    -0.8498    -0.5984	H
74	H30    -9.6430     3.9656     2.7833	H	1	noname	1
75	C22    -9.5150     8.0850     0.0000	C
76	O15    -8.3630     8.0850     0.0000	O
77	O16   -10.6670     8.0850     0.0000	O
78	C23    -2.5835     1.3562    -2.2017	C
79	C24    -1.7601     2.0894    -1.0862	C
80	C25    -1.4883     3.5554    -1.5685	C
81	C26    -0.3589     1.3896    -0.9393	C
82	O17    -0.4466     0.2308    -0.2791	O
83	P3     0.6879    -0.7055     0.1241	P
84	O18     0.4774    -1.0761     1.5753	O	1	noname	-1
85	O19     0.6339    -1.9297    -0.7002	O
86	O20     2.0296     0.0035     0.0083	O
87	P4     3.1499    -0.1896    -1.0037	P
88	O21     2.6026    -0.6113    -2.3467	O	1	noname	-1
89	O22     4.0920    -1.2134    -0.5056	O
90	O23     3.8910     1.1316    -1.1791	O
91	C27     3.3232     2.3220    -1.4171	C
92	C28     4.3846     3.4304    -1.6516	C
93	O24     5.3722     3.4073    -0.5960	O
94	C29     5.5975     4.7442    -0.1099	C
95	C30     6.0683     4.6279     1.3679	C
96	C31     4.1759     5.3501    -0.2699	C
97	O25     3.2937     4.7863     0.6961	O
98	C32     3.7639     4.8616    -1.6713	C
99	O26     4.3279     5.6763    -2.5803	O
100	P5     3.9983     5.8792    -4.0506	P
101	O27     4.0241     4.5561    -4.7763	O	1	noname	-1
102	O28     2.6249     6.4944    -4.1775	O	1	noname	-1
103	O29     5.0055     6.7874    -4.6398	O
104	N8     6.5919     5.4894    -0.8707	N
105	C33     6.8983     6.8011    -0.7025	C
106	N9     7.8114     7.2348    -1.5891	N
107	C34     8.1044     6.1661    -2.3372	C
108	C35     7.3722     5.0712    -1.8890	C
109	N10     7.5159     3.8586    -2.4834	N
110	C36     8.3699     3.7109    -3.5340	C
111	N11     9.0815     4.7789    -3.9928	N
112	C37     8.9779     6.0124    -3.4261	C
113	N12     9.6712     7.0192    -3.8963	N
114	C38    -2.5581     2.0464     0.2846	C
115	O30    -1.6860     2.1220     1.4084	O
116	C39    -3.6673     2.9943     0.3991	C
117	O31    -4.7295     2.7026    -0.1534	O
118	N13    -3.6705     4.1478     1.0177	N
119	C40    -2.6968     4.8711     1.7144	C
120	C41    -2.8082     6.3884     1.3890	C
121	C42    -2.0762     7.2359     2.3288	C
122	O32    -0.8744     7.0125     2.4899	O
123	N14    -2.5772     8.2323     3.0234	N
124	C43    -3.8412     8.8185     2.9405	C
125	C44    -3.9570    10.0364     3.8877	C
126	H31    -3.5424     1.8510    -2.3682	H
127	H32    -2.0459     1.3516    -3.1528	H
128	H33    -2.7793     0.3194    -1.9216	H
129	H34    -0.9055     4.1038    -0.8259	H
130	H35    -2.4196     4.0999    -1.7383	H
131	H36    -0.9276     3.5626    -2.5067	H
132	H37     0.0902     1.2261    -1.9242	H
133	H38     0.3086     2.0505    -0.3780	H
134	H39     2.7021     2.5966    -0.5605	H
135	H40     2.6868     2.2728    -2.3064	H
136	H41     4.8875     3.2125    -2.5979	H
137	H42     6.0519     5.6034     1.8569	H
138	H43     7.0861     4.2340     1.4078	H
139	H44     5.4227     3.9512     1.9309	H
140	H45     4.1577     6.4389    -0.1775	H
141	H46     2.5694     5.4301     0.8549	H
142	H47     2.6698     4.8629    -1.7684	H
143	H48     6.4840     7.4127     0.0038	H
144	H49     8.4766     2.8007    -3.9821	H
145	H50     9.5873     7.8673    -3.5087	H
146	H51    10.2440     6.8955    -4.6258	H
147	H52    -2.9935     1.0492     0.4029	H
148	H53    -2.2072     2.5502     2.1185	H
149	H54    -4.4897     4.5722     0.9234	H
150	H55    -2.8700     4.7068     2.7816	H
151	H56    -1.6820     4.5514     1.4754	H
152	H57    -3.8634     6.6672     1.3596	H
153	H58    -2.4070     6.5614     0.3869	H
154	H59    -1.9563     8.5816     3.6159	H
155	H60    -4.0065     9.1405     1.9116	H
156	H61    -4.6067     8.0851     3.2075	H
157	H62    -3.8795     9.6952     4.9218	H
158	H63    -3.1483    10.7470     3.7035	H
159	O33    -9.1431    14.4185     3.8518	O
160	C45    -8.8631    13.4313     2.9554	C
161	C46    -7.6613    12.6741     3.2941	C
162	C47    -6.4749    12.9955     2.3399	C
163	C48    -5.2917    12.1939     2.6006	C
164	S1    -5.5607    10.8930     3.7070	S
165	O34    -9.3963    12.9908     1.8687	O
166	O35    -4.2598    12.7279     2.9814	O
167	H64    -8.5819    14.5182     4.5194	H
168	H65    -7.9006    11.6065     3.2661	H
169	H66    -7.3398    12.8906     4.3180	H
170	H67    -6.7709    12.8455     1.2995	H
171	H68    -6.2289    14.0576     2.4481	H
@<TRIPOS>BOND
1	1	2	2
2	1	6	1
3	2	3	1
4	3	4	1
5	4	5	2
6	5	6	1
7	1	7	1
8	7	8	2
9	7	9	1
10	3	10	1
11	14	10	1
12	11	10	1
13	11	12	1
14	12	13	1
15	13	14	1
16	14	15	1
17	13	16	1
18	12	17	1
19	17	18	1
20	18	19	1
21	19	20	2
22	19	21	1
23	19	22	1
24	22	23	1
25	23	24	2
26	23	25	1
27	23	26	1
28	26	27	1
29	27	28	1
30	32	28	1
31	29	28	1
32	29	30	1
33	30	31	1
34	31	32	1
35	32	33	1
36	31	34	1
37	30	35	1
38	42	35	1
39	35	43	1
40	36	37	2
41	36	40	1
42	37	38	1
43	38	39	2
44	39	42	1
45	42	40	2
46	41	40	1
47	41	43	2
48	36	44	1
49	2	45	1
50	4	46	1
51	5	47	1
52	6	48	1
53	6	49	1
54	9	50	1
55	9	51	1
56	10	52	1
57	12	53	1
58	13	54	1
59	14	55	1
60	15	56	1
61	16	57	1
62	17	58	1
63	17	59	1
64	21	60	1
65	25	61	1
66	27	62	1
67	27	63	1
68	28	64	1
69	30	65	1
70	31	66	1
71	32	67	1
72	33	68	1
73	34	69	1
74	38	70	1
75	43	71	1
76	44	72	1
77	44	73	1
78	75	76	2
79	75	77	2
80	78	79	1
81	79	80	1
82	79	81	1
83	79	114	1
84	81	82	1
85	82	83	1
86	83	84	1
87	83	85	2
88	83	86	1
89	86	87	1
90	87	88	1
91	87	89	2
92	87	90	1
93	90	91	1
94	91	92	1
95	92	93	1
96	92	98	1
97	93	94	1
98	94	95	1
99	94	96	1
100	94	104	1
101	96	97	1
102	96	98	1
103	98	99	1
104	99	100	1
105	100	101	1
106	100	102	1
107	100	103	2
108	104	105	1
109	104	108	1
110	105	106	2
111	106	107	1
112	107	108	2
113	107	112	1
114	108	109	1
115	109	110	2
116	110	111	1
117	111	112	2
118	112	113	1
119	114	115	1
120	114	116	1
121	116	117	2
122	116	118	1
123	118	119	1
124	119	120	1
125	120	121	1
126	121	122	2
127	121	123	1
128	123	124	1
129	124	125	1
130	125	164	1
131	78	126	1
132	78	127	1
133	78	128	1
134	80	129	1
135	80	130	1
136	80	131	1
137	81	132	1
138	81	133	1
139	91	134	1
140	91	135	1
141	92	136	1
142	95	137	1
143	95	138	1
144	95	139	1
145	96	140	1
146	97	141	1
147	98	142	1
148	105	143	1
149	110	144	1
150	113	145	1
151	113	146	1
152	114	147	1
153	115	148	1
154	118	149	1
155	119	150	1
156	119	151	1
157	120	152	1
158	120	153	1
159	123	154	1
160	124	155	1
161	124	156	1
162	125	157	1
163	125	158	1
164	159	160	1
165	159	167	1
166	160	161	1
167	160	165	2
168	161	162	1
169	161	168	1
170	161	169	1
171	162	163	1
172	162	170	1
173	162	171	1
174	163	164	1
175	163	166	2
@<TRIPOS>SUBSTRUCTURE
1	noname	1
