@<TRIPOS>MOLECULE

15 14
SMALL
USER_CHARGES
@<TRIPOS>ATOM
1	P1     0.0086    -2.7738     0.5899	P
2	O1    -1.4518    -2.9071     0.1802	O
3	C1    -2.0866    -2.3124    -0.8379	C
4	C2    -3.5581    -2.8050    -0.8877	C
5	C3    -4.3650    -2.0997    -1.8663	C
6	O2    -5.4846    -2.4872    -2.1669	O
7	O3    -3.5861    -4.1995    -1.1847	O
8	O4     0.7470    -4.0294     0.1877	O	1	noname	-1
9	O5     0.0698    -2.6337     2.0945	O	1	noname	-1
10	O6     0.6425    -1.5980    -0.0413	O
11	H1    -2.0719    -1.2284    -0.6895	H
12	H2    -1.5927    -2.5440    -1.7869	H
13	H3    -4.0137    -2.6625     0.0946	H
14	H4    -4.0402    -1.2626    -2.2871	H
15	H5    -2.9157    -4.6413    -0.6209	H
@<TRIPOS>BOND
1	2	3	1
2	3	4	1
3	4	5	1
4	5	6	2
5	4	7	1
6	1	8	1
7	1	9	1
8	1	10	2
9	3	11	1
10	3	12	1
11	4	13	1
12	5	14	1
13	7	15	1
14	2	1	1
@<TRIPOS>SUBSTRUCTURE
1	noname	1
