@<TRIPOS>MOLECULE

141 144
SMALL
USER_CHARGES
@<TRIPOS>ATOM
1	C1     3.4405    -6.7994     5.8560	C
2	C2     3.0710    -6.2363     4.4396	C
3	C3     2.6094    -4.7489     4.6143	C
4	C4     1.8379    -7.0341     3.8761	C
5	O1     2.1873    -8.2460     3.4340	O
6	P1     1.3015    -9.2878     2.7585	P
7	O2     2.0401    -9.7896     1.5376	O	1	noname	-1
8	O3     1.0739   -10.4164     3.6835	O
9	O4    -0.0031    -8.6565     2.2941	O
10	P2    -1.4131    -8.8162     2.8442	P
11	O5    -1.3907    -9.0644     4.3338	O	1	noname	-1
12	O6    -2.0833    -9.9424     2.1614	O
13	O7    -2.1947    -7.5333     2.5817	O
14	C5    -1.7800    -6.2916     2.8685	C
15	C6    -2.8764    -5.2340     2.5690	C
16	O8    -3.4045    -5.4260     1.2369	O
17	C7    -3.4632    -4.1621     0.5488	C
18	C8    -3.3535    -4.4569    -0.9743	C
19	C9    -2.2140    -3.4549     1.1429	C
20	O9    -1.0260    -4.0570     0.6374	O
21	C10    -2.3373    -3.7720     2.6450	C
22	O10    -3.2138    -2.9065     3.1842	O
23	P3    -3.4538    -2.5354     4.6389	P
24	O11    -3.7172    -3.7771     5.4554	O	1	noname	-1
25	O12    -2.2374    -1.8254     5.1837	O	1	noname	-1
26	O13    -4.6264    -1.6373     4.7103	O
27	N1    -4.6836    -3.4077     0.8026	N
28	C11    -4.9342    -2.1417     0.3818	C
29	N2    -6.1189    -1.6786     0.8179	N
30	C12    -6.6442    -2.6824     1.5280	C
31	C13    -5.7753    -3.7688     1.5087	C
32	N3    -6.1022    -4.9215     2.1480	N
33	C14    -7.2799    -5.0155     2.8254	C
34	N4    -8.1331    -3.9534     2.8651	N
35	C15    -7.8542    -2.7796     2.2344	C
36	N5    -8.6932    -1.7760     2.2985	N
37	C16     4.3188    -6.3677     3.4683	C
38	O14     3.9210    -6.4613     2.1038	O
39	C17     5.3717    -5.3683     3.6549	C
40	O15     6.1613    -5.5352     4.5862	O
41	N6     5.5782    -4.2856     2.9491	N
42	C18     4.9148    -3.6992     1.8662	C
43	C19     4.8661    -2.1528     2.0293	C
44	C20     4.5142    -1.4526     0.7952	C
45	O16     3.4615    -1.7663     0.2352	O
46	N7     5.2147    -0.5022     0.2187	N
47	C21     6.3464     0.1678     0.6864	C
48	C22     6.7772     1.2883    -0.2896	C
49	H1     4.2598    -6.2310     6.3006	H
50	H2     2.5904    -6.7415     6.5397	H
51	H3     3.7478    -7.8450     5.7900	H
52	H4     2.3299    -4.3163     3.6518	H
53	H5     3.4008    -4.1326     5.0462	H
54	H6     1.7423    -4.6820     5.2764	H
55	H7     1.0609    -7.1249     4.6420	H
56	H8     1.4104    -6.4768     3.0371	H
57	H9    -0.8929    -6.0666     2.2707	H
58	H10    -1.5153    -6.2103     3.9276	H
59	H11    -3.6880    -5.3861     3.2859	H
60	H12    -3.1787    -3.5368    -1.5346	H
61	H13    -4.2763    -4.9160    -1.3353	H
62	H14    -2.5316    -5.1452    -1.1803	H
63	H15    -2.1861    -2.3821     0.9363	H
64	H16    -0.3080    -3.3883     0.6787	H
65	H17    -1.3563    -3.6921     3.1327	H
66	H18    -4.3018    -1.5799    -0.1918	H
67	H19    -7.5249    -5.8805     3.3074	H
68	H20    -8.4903    -0.9679     1.8713	H
69	H21    -9.4918    -1.8608     2.7786	H
70	H22     4.7882    -7.3423     3.6345	H
71	H23     4.6581    -6.0754     1.5869	H
72	H24     6.2957    -3.8031     3.2845	H
73	H25     5.4726    -3.9596     0.9624	H
74	H26     3.8904    -4.0563     1.7552	H
75	H27     5.8300    -1.8067     2.4077	H
76	H28     4.1201    -1.9047     2.7890	H
77	H29     4.8487    -0.2545    -0.5957	H
78	H30     6.1139     0.6021     1.6595	H
79	H31     7.1718    -0.5393     0.8043	H
80	H32     7.0937     0.8399    -1.2333	H
81	H33     5.9427     1.9616    -0.4971	H
82	H34     7.6595     3.3168     0.9496	H
83	S1     8.1828     2.2579     0.3603	S
84	N8    -4.3937   -17.5566     7.8718	N
85	C23    -3.6614   -16.5588     7.4531	C
86	N9    -2.3686   -16.4474     7.8664	N
87	C24    -1.6135   -15.4016     7.4363	C
88	C25    -2.1427   -14.4467     6.5768	C
89	N10    -1.2041   -13.5321     6.3093	N
90	C26    -0.1055   -13.9139     6.9900	C
91	N11    -0.3357   -15.0582     7.6812	N
92	C27     0.5915   -15.7646     8.5314	C
93	O17     1.8479   -15.0806     8.7295	O
94	C28     2.9023   -16.0236     8.5235	C
95	C29     4.1601   -15.3247     7.9842	C
96	O18     4.6721   -14.4132     8.9470	O
97	C30     2.3538   -17.0412     7.5242	C
98	O19     3.0256   -18.1950     7.5189	O
99	C31     0.9008   -17.1698     7.9855	C
100	O20     0.7172   -18.1341     9.0210	O
101	C32    -3.4742   -14.5680     6.1527	C
102	O21    -3.9926   -13.7315     5.3811	O
103	N12    -4.1956   -15.6295     6.6087	N
104	P4     5.7323   -13.4577     8.0127	P
105	O22     5.8587   -11.8774     7.8946	O
106	P5     7.2865   -11.2477     8.2027	P
107	O23     7.1226    -9.6774     7.9993	O
108	P6     8.4216    -8.7998     8.2480	P
109	O24     8.0435    -7.2856     8.0286	O	1	noname	-1
110	O25     8.9154    -8.9216     9.7403	O
111	O26     9.5854    -9.2045     7.2640	O	1	noname	-1
112	O27     7.7107   -11.5660     9.6883	O
113	O28     8.3167   -11.8546     7.1943	O	1	noname	-1
114	O29     6.0063   -13.9333     9.4906	O
115	O30     6.7173   -14.1774     7.0128	O	1	noname	-1
116	H35    -4.9354   -18.0969     7.2126	H
117	H36    -4.4180   -17.7875     8.8548	H
118	H37     0.8399   -13.3715     6.9825	H
119	H38     0.0787   -15.7525     9.4932	H
120	H39     3.1510   -16.4737     9.4846	H
121	H40     4.9376   -16.0791     7.8638	H
122	H41     3.8636   -14.7075     7.1362	H
123	H42     2.5232   -16.8486     6.4649	H
124	H43     2.8072   -18.6961     8.3081	H
125	H44     0.2390   -17.5624     7.2135	H
126	H45     0.2068   -17.7442     9.7345	H
127	H46    -5.1557   -15.7306     6.3118	H
128	O31    15.0615     0.0150     6.0817	O
129	C33    14.0554     0.9104     5.8876	C
130	C34    12.7615     0.3955     6.3198	C
131	C35    12.0305    -0.3722     5.1827	C
132	C36    10.7454    -0.8934     5.6087	C
133	O32    10.6830    -1.7150     6.5309	O
134	O33    13.9496     2.0970     5.4026	O
135	O34     9.7019    -0.5295     5.0603	O
136	H47    14.8402    -0.7568     6.4376	H
137	H48    12.1223     1.2112     6.6758	H
138	H49    12.9026    -0.2696     7.1764	H
139	H50    12.6475    -1.2104     4.8467	H
140	H51    11.8922     0.2982     4.3268	H
141	H52     9.8629    -1.9386     6.7072	H
@<TRIPOS>BOND
1	1	2	1
2	2	3	1
3	2	4	1
4	2	37	1
5	4	5	1
6	5	6	1
7	6	7	1
8	6	8	2
9	6	9	1
10	9	10	1
11	10	11	1
12	10	12	2
13	10	13	1
14	13	14	1
15	14	15	1
16	15	16	1
17	15	21	1
18	16	17	1
19	17	18	1
20	17	19	1
21	17	27	1
22	19	20	1
23	19	21	1
24	21	22	1
25	22	23	1
26	23	24	1
27	23	25	1
28	23	26	2
29	27	28	1
30	27	31	1
31	28	29	2
32	29	30	1
33	30	31	2
34	30	35	1
35	31	32	1
36	32	33	2
37	33	34	1
38	34	35	2
39	35	36	1
40	37	38	1
41	37	39	1
42	39	40	2
43	39	41	1
44	41	42	1
45	42	43	1
46	43	44	1
47	44	45	2
48	44	46	1
49	46	47	1
50	47	48	1
51	48	83	1
52	1	49	1
53	1	50	1
54	1	51	1
55	3	52	1
56	3	53	1
57	3	54	1
58	4	55	1
59	4	56	1
60	14	57	1
61	14	58	1
62	15	59	1
63	18	60	1
64	18	61	1
65	18	62	1
66	19	63	1
67	20	64	1
68	21	65	1
69	28	66	1
70	33	67	1
71	36	68	1
72	36	69	1
73	37	70	1
74	38	71	1
75	41	72	1
76	42	73	1
77	42	74	1
78	43	75	1
79	43	76	1
80	46	77	1
81	47	78	1
82	47	79	1
83	48	80	1
84	48	81	1
85	82	83	1
86	84	85	1
87	84	116	1
88	84	117	1
89	85	86	2
90	85	103	1
91	86	87	1
92	87	88	2
93	87	91	1
94	88	89	1
95	88	101	1
96	89	90	2
97	90	91	1
98	90	118	1
99	91	92	1
100	92	93	1
101	92	99	1
102	92	119	1
103	93	94	1
104	94	95	1
105	94	97	1
106	94	120	1
107	95	96	1
108	95	121	1
109	95	122	1
110	104	96	1
111	97	98	1
112	97	99	1
113	97	123	1
114	98	124	1
115	99	100	1
116	99	125	1
117	100	126	1
118	101	102	2
119	101	103	1
120	103	127	1
121	104	105	1
122	104	114	2
123	104	115	1
124	105	106	1
125	106	107	1
126	106	112	2
127	106	113	1
128	107	108	1
129	108	109	1
130	108	110	2
131	108	111	1
132	128	129	1
133	128	136	1
134	129	130	1
135	129	134	2
136	130	131	1
137	130	137	1
138	130	138	1
139	131	132	1
140	131	139	1
141	131	140	1
142	132	133	1
143	132	135	2
144	133	141	1
@<TRIPOS>SUBSTRUCTURE
1	noname	1
