@<TRIPOS>MOLECULE

140 143
SMALL
USER_CHARGES
@<TRIPOS>ATOM
1	C1     3.4405    -6.7994     5.8560	C
2	C2     3.0710    -6.2363     4.4396	C
3	C3     2.6094    -4.7489     4.6143	C
4	C4     1.8379    -7.0341     3.8761	C
5	O1     2.1873    -8.2460     3.4340	O
6	P1     1.3015    -9.2878     2.7585	P
7	O2     2.0401    -9.7896     1.5376	O	1	noname	-1
8	O3     1.0739   -10.4164     3.6835	O
9	O4    -0.0031    -8.6565     2.2941	O
10	P2    -1.4131    -8.8162     2.8442	P
11	O5    -1.3907    -9.0644     4.3338	O	1	noname	-1
12	O6    -2.0833    -9.9424     2.1614	O
13	O7    -2.1947    -7.5333     2.5817	O
14	C5    -1.7800    -6.2916     2.8685	C
15	C6    -2.8764    -5.2340     2.5690	C
16	O8    -3.4045    -5.4260     1.2369	O
17	C7    -3.4632    -4.1621     0.5488	C
18	C8    -3.3535    -4.4569    -0.9743	C
19	C9    -2.2140    -3.4549     1.1429	C
20	O9    -1.0260    -4.0570     0.6374	O
21	C10    -2.3373    -3.7720     2.6450	C
22	O10    -3.2138    -2.9065     3.1842	O
23	P3    -3.4538    -2.5354     4.6389	P
24	O11    -3.7172    -3.7771     5.4554	O	1	noname	-1
25	O12    -2.2374    -1.8254     5.1837	O	1	noname	-1
26	O13    -4.6264    -1.6373     4.7103	O
27	N1    -4.6836    -3.4077     0.8026	N
28	C11    -4.9342    -2.1417     0.3818	C
29	N2    -6.1189    -1.6786     0.8179	N
30	C12    -6.6442    -2.6824     1.5280	C
31	C13    -5.7753    -3.7688     1.5087	C
32	N3    -6.1022    -4.9215     2.1480	N
33	C14    -7.2799    -5.0155     2.8254	C
34	N4    -8.1331    -3.9534     2.8651	N
35	C15    -7.8542    -2.7796     2.2344	C
36	N5    -8.6932    -1.7760     2.2985	N
37	C16     4.3188    -6.3677     3.4683	C
38	O14     3.9210    -6.4613     2.1038	O
39	C17     5.3717    -5.3683     3.6549	C
40	O15     6.1613    -5.5352     4.5862	O
41	N6     5.5782    -4.2856     2.9491	N
42	C18     4.9148    -3.6992     1.8662	C
43	C19     4.8661    -2.1528     2.0293	C
44	C20     4.5142    -1.4526     0.7952	C
45	O16     3.4615    -1.7663     0.2352	O
46	N7     5.2147    -0.5022     0.2187	N
47	C21     6.3464     0.1678     0.6864	C
48	C22     6.7772     1.2883    -0.2896	C
49	H1     4.2598    -6.2310     6.3006	H
50	H2     2.5904    -6.7415     6.5397	H
51	H3     3.7478    -7.8450     5.7900	H
52	H4     2.3299    -4.3163     3.6518	H
53	H5     3.4008    -4.1326     5.0462	H
54	H6     1.7423    -4.6820     5.2764	H
55	H7     1.0609    -7.1249     4.6420	H
56	H8     1.4104    -6.4768     3.0371	H
57	H9    -0.8929    -6.0666     2.2707	H
58	H10    -1.5153    -6.2103     3.9276	H
59	H11    -3.6880    -5.3861     3.2859	H
60	H12    -3.1787    -3.5368    -1.5346	H
61	H13    -4.2763    -4.9160    -1.3353	H
62	H14    -2.5316    -5.1452    -1.1803	H
63	H15    -2.1861    -2.3821     0.9363	H
64	H16    -0.3080    -3.3883     0.6787	H
65	H17    -1.3563    -3.6921     3.1327	H
66	H18    -4.3018    -1.5799    -0.1918	H
67	H19    -7.5249    -5.8805     3.3074	H
68	H20    -8.4903    -0.9679     1.8713	H
69	H21    -9.4918    -1.8608     2.7786	H
70	H22     4.7882    -7.3423     3.6345	H
71	H23     4.6581    -6.0754     1.5869	H
72	H24     6.2957    -3.8031     3.2845	H
73	H25     5.4726    -3.9596     0.9624	H
74	H26     3.8904    -4.0563     1.7552	H
75	H27     5.8300    -1.8067     2.4077	H
76	H28     4.1201    -1.9047     2.7890	H
77	H29     4.8487    -0.2545    -0.5957	H
78	H30     6.1139     0.6021     1.6595	H
79	H31     7.1718    -0.5393     0.8043	H
80	H32     7.0937     0.8399    -1.2333	H
81	H33     5.9427     1.9616    -0.4971	H
82	O17    11.4905     5.9689     1.1163	O
83	C23    10.9208     5.0620     1.9586	C
84	C24     9.9449     4.2003     1.2972	C
85	C25     8.4837     4.5415     1.7096	C
86	C26     7.4973     3.6448     1.1322	C
87	S1     8.1828     2.2579     0.3603	S
88	O18    11.0251     4.7682     3.2085	O
89	O19     6.6674     4.0714     0.3422	O
90	H34    11.2129     5.9650     0.2836	H
91	H35    10.1797     3.1582     1.5355	H
92	H36    10.0189     4.2913     0.2087	H
93	H37     8.3785     4.5165     2.7962	H
94	H38     8.2725     5.5696     1.3955	H
95	N8    -7.2205   -16.7254     5.4048	N
96	C27    -6.1970   -15.9507     5.1609	C
97	N9    -4.9487   -16.3370     5.5444	N
98	C28    -3.8881   -15.5227     5.2978	C
99	C29    -4.0606   -14.3027     4.6556	C
100	N10    -2.8725   -13.6998     4.5372	N
101	C30    -1.9730   -14.5339     5.0949	C
102	N11    -2.5753   -15.6564     5.5612	N
103	C31    -1.9463   -16.7701     6.2287	C
104	O20    -0.5442   -16.5718     6.5121	O
105	C32     0.1617   -17.7424     6.0940	C
106	C33     1.5919   -17.3888     5.6569	C
107	O21     2.3380   -16.8900     6.7590	O
108	C34    -0.6516   -18.3211     4.9370	C
109	O22    -0.3813   -19.6046     4.6881	O
110	C35    -2.0833   -18.0682     5.4134	C
111	O23    -2.5945   -19.1045     6.2503	O
112	C36    -5.3484   -13.9113     4.2609	C
113	O24    -5.5510   -12.8215     3.6818	O
114	N12    -6.3830   -14.7558     4.5287	N
115	P4     3.6741   -16.1594     5.9903	P
116	O25     4.2995   -14.7093     6.1733	O
117	P5     5.8435   -14.6369     6.5486	P
118	O26     6.1404   -13.1012     6.6476	O	1	noname	-1
119	O27     6.1001   -15.3529     7.9305	O
120	O28     6.6571   -15.3334     5.4086	O	1	noname	-1
121	O29     3.7387   -16.9723     7.3396	O
122	O30     4.4088   -16.9479     4.8387	O	1	noname	-1
123	H39    -7.8859   -16.9285     4.6726	H
124	H40    -7.3462   -17.1212     6.3254	H
125	H41    -0.9044   -14.3287     5.1600	H
126	H42    -2.4570   -16.7812     7.1915	H
127	H43     0.2258   -18.4242     6.9420	H
128	H44     2.0927   -18.3129     5.3681	H
129	H45     1.5322   -16.5584     4.9534	H
130	H46    -0.3983   -17.9921     3.9292	H
131	H47    -0.7710   -20.1524     5.3733	H
132	H48    -2.8122   -18.0742     4.6030	H
133	H49    -2.9755   -18.7177     7.0420	H
134	H50    -7.3161   -14.4879     4.2502	H
135	P6    11.4955    -6.4618     7.3612	P
136	O31    11.0382    -5.1375     6.8921	O
137	O32    11.8906    -7.3161     6.1791	O	1	noname	-1
138	O33    10.3866    -7.1524     8.1201	O
139	O34    12.6897    -6.2988     8.2725	O	1	noname	-1
140	H51     9.6072    -6.7555     8.2248	H
@<TRIPOS>BOND
1	1	2	1
2	2	3	1
3	2	4	1
4	2	37	1
5	4	5	1
6	5	6	1
7	6	7	1
8	6	8	2
9	6	9	1
10	9	10	1
11	10	11	1
12	10	12	2
13	10	13	1
14	13	14	1
15	14	15	1
16	15	16	1
17	15	21	1
18	16	17	1
19	17	18	1
20	17	19	1
21	17	27	1
22	19	20	1
23	19	21	1
24	21	22	1
25	22	23	1
26	23	24	1
27	23	25	1
28	23	26	2
29	27	28	1
30	27	31	1
31	28	29	2
32	29	30	1
33	30	31	2
34	30	35	1
35	31	32	1
36	32	33	2
37	33	34	1
38	34	35	2
39	35	36	1
40	37	38	1
41	37	39	1
42	39	40	2
43	39	41	1
44	41	42	1
45	42	43	1
46	43	44	1
47	44	45	2
48	44	46	1
49	46	47	1
50	47	48	1
51	48	87	1
52	1	49	1
53	1	50	1
54	1	51	1
55	3	52	1
56	3	53	1
57	3	54	1
58	4	55	1
59	4	56	1
60	14	57	1
61	14	58	1
62	15	59	1
63	18	60	1
64	18	61	1
65	18	62	1
66	19	63	1
67	20	64	1
68	21	65	1
69	28	66	1
70	33	67	1
71	36	68	1
72	36	69	1
73	37	70	1
74	38	71	1
75	41	72	1
76	42	73	1
77	42	74	1
78	43	75	1
79	43	76	1
80	46	77	1
81	47	78	1
82	47	79	1
83	48	80	1
84	48	81	1
85	82	83	1
86	82	90	1
87	83	84	1
88	83	88	2
89	84	85	1
90	84	91	1
91	84	92	1
92	85	86	1
93	85	93	1
94	85	94	1
95	86	87	1
96	86	89	2
97	95	96	1
98	95	123	1
99	95	124	1
100	96	97	2
101	96	114	1
102	97	98	1
103	98	99	2
104	98	102	1
105	99	100	1
106	99	112	1
107	100	101	2
108	101	102	1
109	101	125	1
110	102	103	1
111	103	104	1
112	103	110	1
113	103	126	1
114	104	105	1
115	105	106	1
116	105	108	1
117	105	127	1
118	106	107	1
119	106	128	1
120	106	129	1
121	115	107	1
122	108	109	1
123	108	110	1
124	108	130	1
125	109	131	1
126	110	111	1
127	110	132	1
128	111	133	1
129	112	113	2
130	112	114	1
131	114	134	1
132	115	116	1
133	115	121	2
134	115	122	1
135	116	117	1
136	117	118	1
137	117	119	2
138	117	120	1
139	135	136	2
140	135	137	1
141	135	138	1
142	135	139	1
143	138	140	1
@<TRIPOS>SUBSTRUCTURE
1	noname	1
