@<TRIPOS>MOLECULE

93 95
SMALL
USER_CHARGES
@<TRIPOS>ATOM
1	P1    -3.2175    -1.7244    -4.6937	P
2	O1    -2.6970    -1.1757    -3.3714	O
3	C1    -2.8839    -1.4889    -2.1781	C
4	C2    -2.1891    -0.7409    -1.1473	C
5	C3    -0.6458    -0.7712    -1.2943	C
6	O2    -0.0967     0.0757    -0.4167	O
7	O3    -2.6959     0.5785    -1.2643	O
8	O4    -3.9870    -0.6260    -5.3911	O	1	noname	-1
9	O5    -2.0277    -2.1030    -5.5462	O	1	noname	-1
10	O6    -4.0860    -2.9035    -4.5060	O
11	O7    -3.6765    -2.3523    -1.8310	O
12	P2     1.3558     0.1472     0.0294	P
13	O8     2.2579    -0.3929    -1.0077	O
14	O9     1.7057     1.5914     0.3043	O	1	noname	-1
15	O10     1.5094    -0.6453     1.3064	O	1	noname	-1
16	H1    -2.4508    -1.1129    -0.1504	H
17	H2    -0.3497    -0.4659    -2.3028	H
18	H3    -0.2990    -1.7946    -1.1235	H
19	H4    -2.3920     1.1174    -0.4997	H
20	C4    -3.8899    -8.1076   -11.9216	C
21	C5    -5.0602    -7.9004   -11.2670	C
22	N1    -5.1389    -7.5394    -9.9809	N
23	C6    -4.0289    -7.3318    -9.2718	C
24	C7    -2.7998    -7.4783    -9.7993	C
25	C8    -2.6298    -7.8762   -11.1894	C
26	C9    -3.8616    -8.5333   -13.2296	C
27	O11    -3.0206    -7.8751   -13.9415	O
28	N2    -4.7498    -9.5974   -13.4923	N
29	C10    -6.4304    -7.3702    -9.3851	C
30	O12    -6.5121    -7.6396    -7.9632	O
31	C11    -7.4129    -6.6951    -7.3428	C
32	C12    -8.0868    -5.9295    -8.4984	C
33	C13    -6.9796    -5.9379    -9.5416	C
34	O13    -7.5804    -5.5794   -10.7720	O
35	O14    -8.4520    -4.5788    -8.2865	O
36	C14    -8.3750    -7.3131    -6.2978	C
37	O15    -9.6482    -7.0955    -6.6445	O
38	P3   -10.8872    -7.7052    -5.9960	P
39	O16   -10.8486    -9.1736    -6.1956	O
40	O17   -12.1038    -7.1008    -6.7284	O
41	O18   -10.8197    -7.4099    -4.4838	O
42	P4   -11.9754    -7.5699    -3.5035	P
43	O19   -13.2285    -7.1240    -4.1552	O
44	O20   -12.1123    -9.0600    -3.1104	O
45	O21   -11.6805    -6.6101    -2.3197	O
46	C15   -11.7424    -5.2744    -2.3705	C
47	C16   -11.2598    -4.6388    -1.0436	C
48	O22   -10.4973    -3.4895    -0.6142	O
49	C17   -10.6442    -3.3319     0.8172	C
50	C18   -11.1910    -4.6798     1.3230	C
51	C19   -12.1166    -5.0464     0.1723	C
52	O23   -12.4629    -6.4088     0.3247	O
53	O24   -11.9785    -4.6881     2.5011	O
54	N3    -9.4119    -2.9619     1.4557	N
55	C20    -7.4390    -1.1860     3.7824	C
56	N4    -8.3637    -0.4169     4.4206	N
57	C21    -9.6870    -0.4570     4.0959	C
58	N5   -10.1299    -1.2827     3.1069	N
59	C22    -7.8867    -2.0424     2.7605	C
60	N6    -7.2379    -2.9119     1.9750	N
61	C23    -9.2411    -2.0664     2.4438	C
62	C24    -8.1834    -3.4619     1.1891	C
63	N7    -6.1790    -1.1129     4.1321	N
64	H5    -5.9071    -8.0271   -11.7772	H
65	H6    -4.0799    -7.0552    -8.3173	H
66	H7    -1.9941    -7.3154    -9.2391	H
67	H8    -2.0529    -7.0896   -11.6868	H
68	H9    -2.0375    -8.7941   -11.2037	H
69	H10    -4.8065    -9.9598   -14.3511	H
70	H11    -5.2819    -9.9307   -12.7991	H
71	H12    -7.1483    -8.0695    -9.8340	H
72	H13    -6.8137    -5.9922    -6.7551	H
73	H14    -8.9699    -6.4702    -8.8605	H
74	H15    -6.2034    -5.2044    -9.2973	H
75	H16    -7.0306    -5.9353   -11.5023	H
76	H17    -8.8734    -4.5076    -7.4025	H
77	H18    -8.1748    -8.3882    -6.2382	H
78	H19    -8.1775    -6.8651    -5.3184	H
79	H20   -12.0987    -7.0742    -7.6088	H
80	H21   -12.3471    -9.6836    -3.6873	H
81	H22   -12.7772    -4.9701    -2.5515	H
82	H23   -11.1206    -4.8966    -3.1886	H
83	H24   -10.5633    -5.4496    -1.2832	H
84	H25   -11.3991    -2.5543     0.9846	H
85	H26   -10.3797    -5.4087     1.4347	H
86	H27   -13.0363    -4.4518     0.2096	H
87	H28   -12.7731    -6.7426    -0.5449	H
88	H29   -11.5380    -4.1258     3.1749	H
89	H30   -10.3475     0.1353     4.5970	H
90	H31    -7.9840    -4.1718     0.4827	H
91	H32    -5.9195    -0.5513     4.8353	H
92	H33    -5.5344    -1.6196     3.6825	H
93	H34     1.5359    -4.4160    -8.2519	H	1	noname	1
@<TRIPOS>BOND
1	1	2	1
2	2	3	1
3	3	4	1
4	4	5	1
5	5	6	1
6	4	7	1
7	1	8	1
8	1	9	1
9	1	10	2
10	3	11	2
11	6	12	1
12	12	13	2
13	12	14	1
14	12	15	1
15	4	16	1
16	5	17	1
17	5	18	1
18	7	19	1
19	20	21	2
20	20	25	1
21	21	22	1
22	22	23	1
23	23	24	2
24	24	25	1
25	20	26	1
26	26	27	2
27	26	28	1
28	22	29	1
29	33	29	1
30	30	29	1
31	30	31	1
32	31	32	1
33	32	33	1
34	33	34	1
35	32	35	1
36	31	36	1
37	36	37	1
38	37	38	1
39	38	39	2
40	38	40	1
41	38	41	1
42	41	42	1
43	42	43	2
44	42	44	1
45	42	45	1
46	45	46	1
47	46	47	1
48	51	47	1
49	48	47	1
50	48	49	1
51	49	50	1
52	50	51	1
53	51	52	1
54	50	53	1
55	49	54	1
56	61	54	1
57	54	62	1
58	55	56	2
59	55	59	1
60	56	57	1
61	57	58	2
62	58	61	1
63	61	59	2
64	60	59	1
65	60	62	2
66	55	63	1
67	21	64	1
68	23	65	1
69	24	66	1
70	25	67	1
71	25	68	1
72	28	69	1
73	28	70	1
74	29	71	1
75	31	72	1
76	32	73	1
77	33	74	1
78	34	75	1
79	35	76	1
80	36	77	1
81	36	78	1
82	40	79	1
83	44	80	1
84	46	81	1
85	46	82	1
86	47	83	1
87	49	84	1
88	50	85	1
89	51	86	1
90	52	87	1
91	53	88	1
92	57	89	1
93	62	90	1
94	63	91	1
95	63	92	1
@<TRIPOS>SUBSTRUCTURE
1	noname	1
