@<TRIPOS>MOLECULE

93 95
SMALL
USER_CHARGES
@<TRIPOS>ATOM
1	P1     0.8152    -4.5538     1.9219	P
2	O1    -0.6452    -4.6871     1.5122	O
3	C1    -1.2800    -4.0924     0.4941	C
4	C2    -2.7515    -4.5850     0.4443	C
5	C3    -3.5584    -3.8797    -0.5343	C
6	O2    -4.6780    -4.2672    -0.8349	O
7	O3    -2.7795    -5.9795     0.1473	O
8	O4     1.5536    -5.8094     1.5197	O	1	noname	-1
9	O5     0.8764    -4.4137     3.4265	O	1	noname	-1
10	O6     1.4491    -3.3780     1.2907	O
11	H1    -1.2653    -3.0084     0.6425	H
12	H2    -0.7861    -4.3240    -0.4549	H
13	H3    -3.2071    -4.4425     1.4266	H
14	H4    -3.2336    -3.0426    -0.9551	H
15	H5    -2.1091    -6.4213     0.7111	H
16	C4    -9.2380     1.1588    -8.8328	C
17	C5    -9.9771     0.1173    -8.3744	C
18	N1    -9.5548    -0.7380    -7.4361	N	1	noname	1
19	C6    -8.3578    -0.5784    -6.8705	C
20	C7    -7.5284     0.4247    -7.2120	C
21	C8    -7.9115     1.3924    -8.2299	C
22	C9    -9.6938     1.9776    -9.8400	C
23	O7    -9.5091     3.2213    -9.5825	O
24	N2   -10.2496     1.2721   -10.9279	N
25	C10   -10.4115    -1.8168    -7.0439	C
26	O8    -9.7455    -3.0215    -6.5896	O
27	C11   -10.4892    -3.6021    -5.4951	C
28	C12   -11.8101    -2.8120    -5.4131	C
29	C13   -11.3610    -1.4387    -5.8892	C
30	O9   -12.5366    -0.7127    -6.1965	O
31	O10   -12.4117    -2.6388    -4.1440	O
32	C14   -10.6334    -5.1431    -5.5596	C
33	O11   -11.9238    -5.4938    -5.5833	O
34	P2   -12.4854    -6.8882    -5.8434	P
35	O12   -12.1177    -7.2944    -7.2208	O
36	O13   -14.0189    -6.7706    -5.7153	O
37	O14   -11.8172    -7.8575    -4.8472	O
38	P3   -12.2869    -9.2763    -4.5503	P
39	O15   -13.7676    -9.3005    -4.5225	O
40	O16   -11.7864   -10.2262    -5.6644	O
41	O17   -11.7731    -9.6179    -3.1259	O
42	C15   -12.2372    -9.0908    -1.9871	C
43	C16   -11.4056    -9.5632    -0.7693	C
44	O18   -10.9032    -9.0164     0.4696	O
45	C17   -10.4117   -10.0963     1.2989	C
46	C18   -10.2442   -11.2972     0.3494	C
47	C19   -11.4440   -11.0912    -0.5634	C
48	O19   -11.2673   -11.9265    -1.6905	O
49	O20   -10.3582   -12.6030     0.8879	O
50	N3    -9.1921    -9.7541     1.9760	N
51	C20    -6.9823    -9.7102     4.7281	C
52	N4    -7.6868   -10.3857     5.6776	N
53	C21    -8.9339   -10.8810     5.4378	C
54	N5    -9.5209   -10.7120     4.2201	N
55	C22    -7.5796    -9.5314     3.4675	C
56	N6    -7.1451    -8.9361     2.3490	N
57	C23    -8.8538   -10.0433     3.2446	C
58	C24    -8.1400    -9.0834     1.4531	C
59	N7    -5.7863    -9.2549     5.0066	N
60	H6   -10.8853    -0.0150    -8.7632	H
61	H7    -8.0407    -1.2058    -6.1663	H
62	H8    -6.6422     0.5115    -6.7687	H
63	H9    -7.3818     2.0683    -8.5779	H
64	H10   -10.5878     1.7363   -11.6643	H
65	H11   -10.2786     0.3377   -10.9002	H
66	H12   -11.0166    -2.1486    -7.8980	H
67	H13    -9.9205    -3.4364    -4.5743	H
68	H14   -12.5598    -3.2360    -6.0925	H
69	H15   -10.8113    -0.9100    -5.1028	H
70	H16   -12.3091    -0.0111    -6.8433	H
71	H17   -12.3777    -3.4960    -3.6663	H
72	H18   -10.1252    -5.4994    -6.4619	H
73	H19   -10.1466    -5.5865    -4.6848	H
74	H20   -14.4286    -6.1043    -6.1205	H
75	H21   -12.0678   -10.1705    -6.4977	H
76	H22   -13.2766    -9.4007    -1.8461	H
77	H23   -12.2036    -7.9974    -2.0337	H
78	H24   -10.6964    -9.3239    -1.5691	H
79	H25   -11.1936   -10.3269     2.0324	H
80	H26    -9.3004   -11.2239    -0.2038	H
81	H27   -12.3708   -11.3866    -0.0586	H
82	H28   -11.8313   -11.5811    -2.4161	H
83	H29    -9.8419   -12.6427     1.7222	H
84	H30    -9.4287   -11.3802     6.1755	H
85	H31    -8.0921    -8.7290     0.4966	H
86	H32    -5.4079    -9.4152     5.8483	H
87	H33    -5.3060    -8.7690     4.3682	H
88	P4    -1.2532     0.3881    -5.5656	P
89	O21    -0.0945     1.1193    -5.0127	O
90	O22    -2.5266     0.8798    -4.9175	O	1	noname	-1
91	O23    -1.1046    -1.0919    -5.3006	O
92	O24    -1.3394     0.6160    -7.0568	O	1	noname	-1
93	H34    -0.3984    -1.3966    -4.8712	H
@<TRIPOS>BOND
1	2	3	1
2	3	4	1
3	4	5	1
4	5	6	2
5	4	7	1
6	1	8	1
7	1	9	1
8	1	10	2
9	3	11	1
10	3	12	1
11	4	13	1
12	5	14	1
13	7	15	1
14	2	1	1
15	16	17	1
16	16	21	2
17	17	18	2
18	18	19	1
19	19	20	2
20	20	21	1
21	16	22	1
22	22	23	2
23	22	24	1
24	18	25	1
25	29	25	1
26	26	25	1
27	26	27	1
28	27	28	1
29	28	29	1
30	29	30	1
31	28	31	1
32	27	32	1
33	32	33	1
34	33	34	1
35	34	35	2
36	34	36	1
37	34	37	1
38	37	38	1
39	38	39	2
40	38	40	1
41	38	41	1
42	41	42	1
43	42	43	1
44	47	43	1
45	44	43	1
46	44	45	1
47	45	46	1
48	46	47	1
49	47	48	1
50	46	49	1
51	45	50	1
52	57	50	1
53	50	58	1
54	51	52	2
55	51	55	1
56	52	53	1
57	53	54	2
58	54	57	1
59	57	55	2
60	56	55	1
61	56	58	2
62	51	59	1
63	17	60	1
64	19	61	1
65	20	62	1
66	21	63	1
67	24	64	1
68	24	65	1
69	25	66	1
70	27	67	1
71	28	68	1
72	29	69	1
73	30	70	1
74	31	71	1
75	32	72	1
76	32	73	1
77	36	74	1
78	40	75	1
79	42	76	1
80	42	77	1
81	43	78	1
82	45	79	1
83	46	80	1
84	47	81	1
85	48	82	1
86	49	83	1
87	53	84	1
88	58	85	1
89	59	86	1
90	59	87	1
91	88	89	2
92	88	90	1
93	88	91	1
94	88	92	1
95	91	93	1
@<TRIPOS>SUBSTRUCTURE
1	noname	1
