@<TRIPOS>MOLECULE

100 104
SMALL
NO_CHARGES
@<TRIPOS>ATOM
1	C1     6.7757    -1.9741    -7.6245	C
2	O1     6.7910    -1.8059    -6.3012	O
3	P1     8.0010    -1.8713    -5.3340	P
4	O2     9.1663    -2.4628    -6.0325	O
5	O3     7.7277    -2.6721    -4.0331	O
6	O4     8.3570    -0.4476    -4.9153	O
7	P2     8.5625     0.7789    -5.7996	P
8	O5     9.4662     0.4326    -6.9213	O
9	O6     7.1866     1.2243    -6.3485	O
10	O7     9.2794     1.8374    -4.9202	O
11	C2    10.4214     1.6454    -4.2511	C
12	C3    10.7933     2.9088    -3.4404	C
13	O8     9.8110     3.1801    -2.4158	O
14	C4    10.4931     3.4043    -1.1632	C
15	C5    11.9421     3.7406    -1.5528	C
16	C6    12.1445     2.7720    -2.7056	C
17	O9    13.3250     3.1666    -3.3790	O
18	O10    12.9658     3.4918    -0.6084	O
19	N1     9.8995     4.4441    -0.3754	N
20	C7     9.0895     6.0207     2.6713	C
21	N2     9.5624     5.1353     3.5930	N
22	C8    10.1697     3.9688     3.2309	C
23	N3    10.3250     3.6543     1.9155	N
24	C9     9.2389     5.7002     1.3109	C
25	N4     8.8871     6.3525     0.1934	N
26	C10     9.8651     4.5087     0.9659	C
27	C11     9.3002     5.5708    -0.8239	C
28	N5     8.5234     7.1359     3.0555	N
29	H1     7.1755    -2.9585    -7.8905	H
30	H2     7.3866    -1.2085    -8.1121	H
31	H3     8.3277    -2.7401    -3.3949	H
32	H4     6.6797     0.6805    -6.8166	H
33	H5    11.2305     1.4262    -4.9543	H
34	H6    10.3184     0.8029    -3.5591	H
35	H7    10.8315     3.7715    -4.1144	H
36	H8    10.4709     2.4617    -0.6040	H
37	H9    12.0166     4.7802    -1.8919	H
38	H10    12.2829     1.7495    -2.3340	H
39	H11    13.2873     2.8084    -4.2917	H
40	H12    12.6623     3.8255     0.2628	H
41	H13    10.5117     3.3294     3.9481	H
42	H14     9.1755     5.8143    -1.8094	H
43	H15     8.2041     7.7423     2.4185	H
44	H16     8.4396     7.3307     3.9667	H
45	C12     5.3199    -1.8481    -8.1300	C
46	C13     4.3402    -2.8882    -7.5041	C
47	C14     2.8604    -2.7801    -7.9858	C
48	C15     2.1286    -1.4652    -7.5757	C
49	O11     5.3379    -2.0430    -9.5363	O
50	O12     4.8454    -4.1783    -7.8552	O
51	O13     2.1537    -3.8931    -7.4401	O
52	C16    -1.5590    -1.5652    -8.2987	C
53	N6    -1.5927    -1.0228    -9.5334	N
54	C17    -0.4796    -0.6219   -10.1838	C
55	C18     0.7933    -0.7760    -9.5678	C
56	N7     0.8552    -1.3042    -8.2784	N
57	C19    -0.3078    -1.7016    -7.6408	C
58	N8    -0.3185    -2.2500    -6.3885	N
59	C20    -1.4380    -2.6740    -5.7550	C
60	N9    -2.6248    -2.5460    -6.4137	N
61	C21    -2.7374    -2.0057    -7.6625	C
62	C22    -0.6283    -0.0649   -11.4658	C
63	C23     0.4951     0.3546   -12.2098	C
64	C24     1.7901     0.1924   -11.6421	C
65	C25     1.9131    -0.3690   -10.3447	C
66	C26     3.0177     0.6047   -12.3805	C
67	C27     0.2930     0.9446   -13.5615	C
68	O14    -1.3468    -3.1717    -4.5981	O
69	O15    -3.8630    -1.9114    -8.2317	O
70	H17     4.9830    -0.8334    -7.9173	H
71	H18     4.3605    -2.7986    -6.4129	H
72	H19     2.8328    -2.8958    -9.0707	H
73	H20     2.0136    -1.4808    -6.4896	H
74	H21     2.7465    -0.5844    -7.7407	H
75	H22     5.7119    -1.2293    -9.9367	H
76	H23     4.4294    -4.8400    -7.2620	H
77	H24     1.1980    -3.6848    -7.4762	H
78	H25    -3.4199    -2.8503    -5.9817	H
79	H26    -1.5699     0.0335   -11.8576	H
80	H27     2.8532    -0.4828    -9.9659	H
81	H28     2.9987     1.6807   -12.5607	H
82	H29     3.9364     0.3784   -11.8359	H
83	H30     3.0685     0.0870   -13.3394	H
84	H31     0.7172     1.9487   -13.5979	H
85	H32    -0.7613     1.0216   -13.8329	H
86	H33     0.7839     0.3255   -14.3130	H
87	O16    -0.8128     1.0588    -1.1336	O
88	C28    -1.4590     1.3827     0.0301	C
89	C29    -0.6457     1.0689     1.1914	C
90	C30    -1.0093     1.2832     2.4222	C
91	C31    -0.2126     0.9818     3.4829	C
92	O17    -0.6098     1.1976     4.6233	O
93	O18    -2.6117     1.8903     0.3156	O
94	O19     0.9051     0.4961     3.3688	O
95	H34    -0.0070     0.7145    -1.0640	H
96	H35     0.2174     0.6971     0.9507	H
97	H36    -1.8989     1.6746     2.6354	H
98	H37    -0.1047     1.0075     5.3184	H
99	H38     0.5244    -2.3643    -5.8439	H
100	H39    -2.4356    -0.9085   -10.0780	H
@<TRIPOS>BOND
1	1	2	1
2	2	3	1
3	3	4	2
4	3	5	1
5	3	6	1
6	6	7	1
7	7	8	2
8	7	9	1
9	7	10	1
10	10	11	1
11	11	12	1
12	16	12	1
13	13	12	1
14	13	14	1
15	14	15	1
16	15	16	1
17	16	17	1
18	15	18	1
19	14	19	1
20	26	19	1
21	19	27	1
22	20	21	2
23	20	24	1
24	21	22	1
25	22	23	2
26	23	26	1
27	26	24	2
28	25	24	1
29	25	27	2
30	20	28	1
31	1	29	1
32	1	30	1
33	5	31	1
34	9	32	1
35	11	33	1
36	11	34	1
37	12	35	1
38	14	36	1
39	15	37	1
40	16	38	1
41	17	39	1
42	18	40	1
43	22	41	1
44	27	42	1
45	28	43	1
46	28	44	1
47	1	45	1
48	45	46	1
49	46	47	1
50	47	48	1
51	45	49	1
52	46	50	1
53	47	51	1
54	52	53	1
55	53	54	1
56	55	56	1
57	56	57	1
58	58	59	1
59	59	60	1
60	60	61	1
61	52	57	2
62	52	61	1
63	57	58	1
64	62	54	2
65	54	55	1
66	65	55	2
67	62	63	1
68	63	64	2
69	64	65	1
70	64	66	1
71	63	67	1
72	59	68	2
73	61	69	2
74	48	56	1
75	45	70	1
76	46	71	1
77	47	72	1
78	48	73	1
79	48	74	1
80	49	75	1
81	50	76	1
82	51	77	1
83	60	78	1
84	62	79	1
85	65	80	1
86	66	81	1
87	66	82	1
88	66	83	1
89	67	84	1
90	67	85	1
91	67	86	1
92	87	88	1
93	88	89	1
94	89	90	2
95	90	91	1
96	91	92	1
97	88	93	2
98	91	94	2
99	87	95	1
100	89	96	1
101	90	97	1
102	92	98	1
103	58	99	1
104	53	100	1
@<TRIPOS>SUBSTRUCTURE
1	noname	1
