@<TRIPOS>MOLECULE

100 104
SMALL
NO_CHARGES
@<TRIPOS>ATOM
1	O1    -1.5589    -0.3674    -0.4776	O
2	C1    -1.3065     0.8362     0.1049	C
3	C2    -0.3462     0.7321     1.1314	C
4	C3    -1.0033     0.4400     2.5530	C
5	C4    -0.0366     0.3341     3.6295	C
6	O2     0.8369    -0.5407     3.5963	O
7	O3    -1.7229     2.0443    -0.0425	O
8	O4    -0.0715     1.1083     4.5895	O
9	H1    -1.1227    -1.0598    -0.1588	H
10	H2     0.2526     1.6629     1.2600	H
11	H3     0.3897    -0.0514     0.9519	H
12	H4    -1.5582    -0.5008     2.4950	H
13	H5    -1.7244     1.2335     2.7803	H
14	H6     1.3656    -0.4933     4.2832	H
15	C5     6.7757    -1.9741    -7.6245	C
16	O5     6.7910    -1.8059    -6.3012	O
17	P1     8.0010    -1.8713    -5.3340	P
18	O6     9.1663    -2.4628    -6.0325	O
19	O7     7.7277    -2.6721    -4.0331	O
20	O8     8.3570    -0.4476    -4.9153	O
21	P2     8.5625     0.7789    -5.7996	P
22	O9     9.4662     0.4326    -6.9213	O
23	O10     7.1866     1.2243    -6.3485	O
24	O11     9.2794     1.8374    -4.9202	O
25	C6    10.4214     1.6454    -4.2511	C
26	C7    10.7933     2.9088    -3.4404	C
27	O12     9.8110     3.1801    -2.4158	O
28	C8    10.4931     3.4043    -1.1632	C
29	C9    11.9421     3.7406    -1.5528	C
30	C10    12.1445     2.7720    -2.7056	C
31	O13    13.3250     3.1666    -3.3790	O
32	O14    12.9658     3.4918    -0.6084	O
33	N1     9.8995     4.4441    -0.3754	N
34	C11     9.0895     6.0207     2.6713	C
35	N2     9.5624     5.1353     3.5930	N
36	C12    10.1697     3.9688     3.2309	C
37	N3    10.3250     3.6543     1.9155	N
38	C13     9.2389     5.7002     1.3109	C
39	N4     8.8871     6.3525     0.1934	N
40	C14     9.8651     4.5087     0.9659	C
41	C15     9.3002     5.5708    -0.8239	C
42	N5     8.5234     7.1359     3.0555	N
43	H7     7.1755    -2.9585    -7.8905	H
44	H8     7.3866    -1.2085    -8.1121	H
45	H9     8.3277    -2.7401    -3.3949	H
46	H10     6.6797     0.6805    -6.8166	H
47	H11    11.2305     1.4262    -4.9543	H
48	H12    10.3184     0.8029    -3.5591	H
49	H13    10.8315     3.7715    -4.1144	H
50	H14    10.4709     2.4617    -0.6040	H
51	H15    12.0166     4.7802    -1.8919	H
52	H16    12.2829     1.7495    -2.3340	H
53	H17    13.2873     2.8084    -4.2917	H
54	H18    12.6623     3.8255     0.2628	H
55	H19    10.5117     3.3294     3.9481	H
56	H20     9.1755     5.8143    -1.8094	H
57	H21     8.2041     7.7423     2.4185	H
58	H22     8.4396     7.3307     3.9667	H
59	C16     5.3199    -1.8481    -8.1300	C
60	C17     4.3402    -2.8882    -7.5041	C
61	C18     2.8604    -2.7801    -7.9858	C
62	C19     2.1286    -1.4652    -7.5757	C
63	O15     5.3379    -2.0430    -9.5363	O
64	O16     4.8454    -4.1783    -7.8552	O
65	O17     2.1537    -3.8931    -7.4401	O
66	C20    -1.5590    -1.5652    -8.2987	C
67	N6    -1.5927    -1.0228    -9.5334	N
68	C21    -0.4796    -0.6219   -10.1838	C
69	C22     0.7933    -0.7760    -9.5678	C
70	N7     0.8552    -1.3042    -8.2784	N
71	C23    -0.3078    -1.7016    -7.6408	C
72	N8    -0.3185    -2.2500    -6.3885	N
73	C24    -1.4380    -2.6740    -5.7550	C
74	N9    -2.6248    -2.5460    -6.4137	N
75	C25    -2.7374    -2.0057    -7.6625	C
76	C26    -0.6283    -0.0649   -11.4658	C
77	C27     0.4951     0.3546   -12.2098	C
78	C28     1.7901     0.1924   -11.6421	C
79	C29     1.9131    -0.3690   -10.3447	C
80	C30     3.0177     0.6047   -12.3805	C
81	C31     0.2930     0.9446   -13.5615	C
82	O18    -1.3468    -3.1717    -4.5981	O
83	O19    -3.8630    -1.9114    -8.2317	O
84	H23     4.9830    -0.8334    -7.9173	H
85	H24     4.3605    -2.7986    -6.4129	H
86	H25     2.8328    -2.8958    -9.0707	H
87	H26     2.0136    -1.4808    -6.4896	H
88	H27     2.7465    -0.5844    -7.7407	H
89	H28     5.7119    -1.2293    -9.9367	H
90	H29     4.4294    -4.8400    -7.2620	H
91	H30     1.1980    -3.6848    -7.4762	H
92	H31    -3.4199    -2.8503    -5.9817	H
93	H32    -1.5699     0.0335   -11.8576	H
94	H33     2.8532    -0.4828    -9.9659	H
95	H34     2.9987     1.6807   -12.5607	H
96	H35     3.9364     0.3784   -11.8359	H
97	H36     3.0685     0.0870   -13.3394	H
98	H37     0.7172     1.9487   -13.5979	H
99	H38    -0.7613     1.0216   -13.8329	H
100	H39     0.7839     0.3255   -14.3130	H
@<TRIPOS>BOND
1	1	2	1
2	2	3	1
3	3	4	1
4	4	5	1
5	5	6	1
6	2	7	2
7	5	8	2
8	1	9	1
9	3	10	1
10	3	11	1
11	4	12	1
12	4	13	1
13	6	14	1
14	15	16	1
15	16	17	1
16	17	18	2
17	17	19	1
18	17	20	1
19	20	21	1
20	21	22	2
21	21	23	1
22	21	24	1
23	24	25	1
24	25	26	1
25	30	26	1
26	27	26	1
27	27	28	1
28	28	29	1
29	29	30	1
30	30	31	1
31	29	32	1
32	28	33	1
33	40	33	1
34	33	41	1
35	34	35	2
36	34	38	1
37	35	36	1
38	36	37	2
39	37	40	1
40	40	38	2
41	39	38	1
42	39	41	2
43	34	42	1
44	15	43	1
45	15	44	1
46	19	45	1
47	23	46	1
48	25	47	1
49	25	48	1
50	26	49	1
51	28	50	1
52	29	51	1
53	30	52	1
54	31	53	1
55	32	54	1
56	36	55	1
57	41	56	1
58	42	57	1
59	42	58	1
60	15	59	1
61	59	60	1
62	60	61	1
63	61	62	1
64	59	63	1
65	60	64	1
66	61	65	1
67	66	67	2
68	67	68	1
69	69	70	1
70	70	71	1
71	72	73	1
72	73	74	1
73	74	75	1
74	66	71	1
75	66	75	1
76	71	72	2
77	76	68	2
78	68	69	1
79	79	69	2
80	76	77	1
81	77	78	2
82	78	79	1
83	78	80	1
84	77	81	1
85	73	82	2
86	75	83	2
87	62	70	1
88	59	84	1
89	60	85	1
90	61	86	1
91	62	87	1
92	62	88	1
93	63	89	1
94	64	90	1
95	65	91	1
96	74	92	1
97	76	93	1
98	79	94	1
99	80	95	1
100	80	96	1
101	80	97	1
102	81	98	1
103	81	99	1
104	81	100	1
@<TRIPOS>SUBSTRUCTURE
1	noname	1
