@<TRIPOS>MOLECULE

59 60
SMALL
USER_CHARGES
@<TRIPOS>ATOM
1	O1    -2.6970    -1.1757    -3.3714	O
2	C1    -2.8839    -1.4889    -2.1781	C
3	C2    -2.1891    -0.7409    -1.1473	C
4	C3    -0.6458    -0.7712    -1.2943	C
5	O2    -0.0967     0.0757    -0.4167	O
6	O3    -2.6959     0.5785    -1.2643	O
7	O4    -3.6765    -2.3523    -1.8310	O
8	P1     1.3558     0.1472     0.0294	P
9	O5     2.2579    -0.3929    -1.0077	O
10	O6     1.7057     1.5914     0.3043	O	1	noname	-1
11	O7     1.5094    -0.6453     1.3064	O	1	noname	-1
12	H1    -2.4508    -1.1129    -0.1504	H
13	H2    -0.3497    -0.4659    -2.3028	H
14	H3    -0.2990    -1.7946    -1.1235	H
15	H4    -2.3920     1.1174    -0.4997	H
16	H5    -2.6139    -1.9715    -3.9019	H
17	N1    -3.6449    -7.6160    -6.5945	N
18	H6    -3.6417    -8.6318    -6.4832	H
19	H7    -3.6695    -7.2095    -5.6535	H
20	N2    -7.1491    -6.5493    -8.1871	N
21	C4    -6.3111    -7.2636    -8.8604	C
22	H8    -6.5460    -7.5484    -9.7830	H
23	N3    -5.1608    -7.6245    -8.3629	N
24	C5    -4.8271    -7.2718    -7.1803	C
25	C6    -6.8356    -6.1869    -7.0019	C
26	C7    -5.6751    -6.5439    -6.5015	C
27	N4    -5.5220    -6.0828    -5.3237	N
28	C8    -6.5701    -5.4121    -5.0275	C
29	H9    -6.7116    -4.9341    -4.1771	H
30	N5    -7.4694    -5.4341    -6.0396	N
31	C9    -8.9232    -4.0090    -2.5403	C
32	H10    -8.4599    -3.0723    -2.2344	H
33	H11    -8.1870    -4.8139    -2.4688	H
34	O8   -11.2408    -5.5597    -3.9521	O
35	H12   -11.1604    -5.5331    -2.9801	H
36	O9   -10.9501    -4.1496    -6.2693	O
37	H13   -10.8376    -4.0018    -7.2305	H
38	C10    -9.9356    -5.0811    -5.9384	C
39	H14   -10.0670    -6.0119    -6.4867	H
40	C11    -9.9420    -5.2623    -4.4554	C
41	H15    -9.2086    -6.0219    -4.2003	H
42	C12    -9.4273    -3.9058    -4.0050	C
43	H16   -10.2292    -3.1681    -4.0718	H
44	C13    -8.5583    -4.4539    -6.1282	C
45	H17    -8.4569    -3.9578    -7.0973	H
46	O10    -8.4114    -3.5315    -4.9929	O
47	O11   -10.0162    -4.2795    -1.6597	O
48	O12   -10.5887    -4.4548     0.7956	O	1	noname	-1
49	O13    -8.5073    -5.3678    -0.0666	O
50	P2    -9.4371    -4.2784    -0.2196	P
51	O14    -8.7128    -2.9361     0.0484	O
52	O15    -7.3644    -4.1095     1.7180	O
53	O16    -9.4892    -3.1351     2.4120	O	1	noname	-1
54	P3    -8.2468    -2.9869     1.5218	P
55	O17    -7.5074    -1.6782     1.8858	O
56	O18    -6.1579    -2.9481     3.4715	O
57	O19    -8.2531    -2.0305     4.2975	O	1	noname	-1
58	P4    -7.0438    -1.8191     3.3591	P
59	O20    -6.2893    -0.5358     3.7706	O	1	noname	-1
@<TRIPOS>BOND
1	1	2	1
2	2	3	1
3	3	4	1
4	4	5	1
5	3	6	1
6	2	7	2
7	5	8	1
8	8	9	2
9	8	10	1
10	8	11	1
11	3	12	1
12	4	13	1
13	4	14	1
14	6	15	1
15	1	16	1
16	17	18	1
17	17	19	1
18	17	24	1
19	20	21	2
20	20	25	1
21	21	22	1
22	21	23	1
23	23	24	2
24	24	26	1
25	25	26	2
26	25	30	1
27	26	27	1
28	27	28	2
29	28	29	1
30	28	30	1
31	30	44	1
32	31	32	1
33	31	33	1
34	31	42	1
35	31	47	1
36	34	35	1
37	34	40	1
38	36	37	1
39	36	38	1
40	38	39	1
41	38	40	1
42	38	44	1
43	40	41	1
44	40	42	1
45	42	43	1
46	42	46	1
47	44	45	1
48	44	46	1
49	47	50	1
50	48	50	1
51	49	50	2
52	50	51	1
53	51	54	1
54	52	54	2
55	53	54	1
56	54	55	1
57	55	58	1
58	56	58	2
59	57	58	1
60	58	59	1
@<TRIPOS>SUBSTRUCTURE
1	noname	1
