@<TRIPOS>MOLECULE

58 59
SMALL
USER_CHARGES
@<TRIPOS>ATOM
1	P1    -3.2175    -1.7244    -4.6937	P
2	O1    -2.6970    -1.1757    -3.3714	O
3	C1    -2.8839    -1.4889    -2.1781	C
4	C2    -2.1891    -0.7409    -1.1473	C
5	C3    -0.6458    -0.7712    -1.2943	C
6	O2    -0.0967     0.0757    -0.4167	O
7	O3    -2.6959     0.5785    -1.2643	O
8	O4    -3.9870    -0.6260    -5.3911	O	1	noname	-1
9	O5    -2.0277    -2.1030    -5.5462	O	1	noname	-1
10	O6    -4.0860    -2.9035    -4.5060	O
11	O7    -3.6765    -2.3523    -1.8310	O
12	P2     1.3558     0.1472     0.0294	P
13	O8     2.2579    -0.3929    -1.0077	O
14	O9     1.7057     1.5914     0.3043	O	1	noname	-1
15	O10     1.5094    -0.6453     1.3064	O	1	noname	-1
16	H1    -2.4508    -1.1129    -0.1504	H
17	H2    -0.3497    -0.4659    -2.3028	H
18	H3    -0.2990    -1.7946    -1.1235	H
19	H4    -2.3920     1.1174    -0.4997	H
20	N1    -3.9300    -8.5714    -7.8411	N
21	H5    -3.9268    -9.5872    -7.7298	H
22	H6    -3.9546    -8.1649    -6.9001	H
23	N2    -7.4342    -7.5048    -9.4337	N
24	C4    -6.5962    -8.2191   -10.1070	C
25	H7    -6.8311    -8.5038   -11.0296	H
26	N3    -5.4459    -8.5800    -9.6095	N
27	C5    -5.1122    -8.2273    -8.4269	C
28	C6    -7.1207    -7.1423    -8.2485	C
29	C7    -5.9602    -7.4994    -7.7481	C
30	N4    -5.8071    -7.0383    -6.5703	N
31	C8    -6.8552    -6.3675    -6.2741	C
32	H8    -6.9967    -5.8896    -5.4237	H
33	N5    -7.7545    -6.3896    -7.2862	N
34	C9    -9.2083    -4.9644    -3.7869	C
35	H9    -8.7450    -4.0277    -3.4810	H
36	H10    -8.4721    -5.7694    -3.7154	H
37	O11   -11.5259    -6.5152    -5.1987	O
38	H11   -11.4455    -6.4886    -4.2267	H
39	O12   -11.2352    -5.1051    -7.5159	O
40	H12   -11.1227    -4.9573    -8.4771	H
41	C10   -10.2207    -6.0366    -7.1850	C
42	H13   -10.3521    -6.9674    -7.7333	H
43	C11   -10.2271    -6.2177    -5.7020	C
44	H14    -9.4937    -6.9774    -5.4469	H
45	C12    -9.7124    -4.8613    -5.2516	C
46	H15   -10.5143    -4.1235    -5.3184	H
47	C13    -8.8434    -5.4093    -7.3748	C
48	H16    -8.7420    -4.9132    -8.3439	H
49	O13    -8.6965    -4.4870    -6.2395	O
50	O14   -10.3013    -5.2349    -2.9063	O
51	O15   -10.8738    -5.4103    -0.4510	O	1	noname	-1
52	O16    -8.7924    -6.3233    -1.3132	O
53	P3    -9.7222    -5.2339    -1.4662	P
54	O17    -8.9979    -3.8916    -1.1982	O
55	O18    -7.6495    -5.0650     0.4714	O
56	O19    -9.7743    -4.0906     1.1654	O	1	noname	-1
57	P4    -8.5319    -3.9424     0.2752	P
58	O20    -7.7402    -2.6174     0.6441	O	1	noname	-1
@<TRIPOS>BOND
1	1	2	1
2	2	3	1
3	3	4	1
4	4	5	1
5	5	6	1
6	4	7	1
7	1	8	1
8	1	9	1
9	1	10	2
10	3	11	2
11	6	12	1
12	12	13	2
13	12	14	1
14	12	15	1
15	4	16	1
16	5	17	1
17	5	18	1
18	7	19	1
19	20	21	1
20	20	22	1
21	20	27	1
22	23	24	2
23	23	28	1
24	24	25	1
25	24	26	1
26	26	27	2
27	27	29	1
28	28	29	2
29	28	33	1
30	29	30	1
31	30	31	2
32	31	32	1
33	31	33	1
34	33	47	1
35	34	35	1
36	34	36	1
37	34	45	1
38	34	50	1
39	37	38	1
40	37	43	1
41	39	40	1
42	39	41	1
43	41	42	1
44	41	43	1
45	41	47	1
46	43	44	1
47	43	45	1
48	45	46	1
49	45	49	1
50	47	48	1
51	47	49	1
52	50	53	1
53	51	53	1
54	52	53	2
55	53	54	1
56	54	57	1
57	55	57	2
58	56	57	1
59	57	58	1
@<TRIPOS>SUBSTRUCTURE
1	noname	1
