@<TRIPOS>MOLECULE

15 13
SMALL
NO_CHARGES
@<TRIPOS>ATOM
1	O1     0.1818    -4.6326    -0.0000	O
2	C1    -0.7138    -3.5960    -0.0000	C
3	C2    -0.0672    -2.3826    -0.0000	C
4	C3    -0.6432    -1.1609     0.0000	C
5	C4     0.0305     0.0210    -0.0000	C
6	O2    -0.5934     1.0772    -0.0000	O
7	O3    -2.0026    -3.5117    -0.0000	O
8	O4     1.2519     0.0997     0.0000	O
9	H1     1.0362    -4.4262     0.0000	H
10	H2     0.9298    -2.4017     0.0000	H
11	H3    -1.6365    -1.1029     0.0000	H
12	H4    -0.1703     1.8488     0.0000	H
13	O5     4.0601    -1.8523    -0.1767	O
14	H5     4.6527    -2.6288    -0.2528	H
15	H6     4.6662    -1.0835    -0.1377	H
@<TRIPOS>BOND
1	1	2	1
2	2	3	1
3	3	4	2
4	4	5	1
5	5	6	1
6	2	7	2
7	5	8	2
8	1	9	1
9	3	10	1
10	4	11	1
11	6	12	1
12	13	14	1
13	13	15	1
@<TRIPOS>SUBSTRUCTURE
1	noname	1
