@<TRIPOS>MOLECULE

15 14
SMALL
NO_CHARGES
@<TRIPOS>ATOM
1	O1    -0.8742     0.4777     2.5465	O
2	C1    -1.1295     0.8910     1.2745	C
3	C2    -0.5019     0.0417     0.2597	C
4	C3    -1.5533    -0.8069    -0.5165	C
5	C4    -1.0047    -1.4388    -1.6986	C
6	O2    -0.8304    -2.6596    -1.7583	O
7	O3    -1.7882     1.8554     0.7325	O
8	O4    -0.7023    -0.7456    -2.6720	O
9	O5     0.2940     0.8437    -0.6218	O
10	H1    -0.3834    -0.2433     2.6351	H
11	H2     0.1959    -0.6619     0.7271	H
12	H3    -1.9522    -1.5676     0.1624	H
13	H4    -2.3962    -0.1874    -0.8348	H
14	H5    -0.5036    -2.9006    -2.5278	H
15	H6     0.7960     1.4350    -0.0205	H
@<TRIPOS>BOND
1	1	2	1
2	2	3	1
3	3	4	1
4	4	5	1
5	5	6	1
6	2	7	2
7	5	8	2
8	3	9	1
9	1	10	1
10	3	11	1
11	4	12	1
12	4	13	1
13	6	14	1
14	9	15	1
@<TRIPOS>SUBSTRUCTURE
1	noname	1
