@<TRIPOS>MOLECULE

16 15
SMALL
USER_CHARGES
@<TRIPOS>ATOM
1	O1    -2.6970    -1.1757    -3.3714	O
2	C1    -2.8839    -1.4889    -2.1781	C
3	C2    -2.1891    -0.7409    -1.1473	C
4	C3    -0.6458    -0.7712    -1.2943	C
5	O2    -0.0967     0.0757    -0.4167	O
6	O3    -2.6959     0.5785    -1.2643	O
7	O4    -3.6765    -2.3523    -1.8310	O
8	P1     1.3558     0.1472     0.0294	P
9	O5     2.2579    -0.3929    -1.0077	O
10	O6     1.7057     1.5914     0.3043	O	1	noname	-1
11	O7     1.5094    -0.6453     1.3064	O	1	noname	-1
12	H1    -2.4508    -1.1129    -0.1504	H
13	H2    -0.3497    -0.4659    -2.3028	H
14	H3    -0.2990    -1.7946    -1.1235	H
15	H4    -2.3920     1.1174    -0.4997	H
16	H5    -2.6139    -1.9715    -3.9019	H
@<TRIPOS>BOND
1	1	2	1
2	2	3	1
3	3	4	1
4	4	5	1
5	3	6	1
6	2	7	2
7	5	8	1
8	8	9	2
9	8	10	1
10	8	11	1
11	3	12	1
12	4	13	1
13	4	14	1
14	6	15	1
15	1	16	1
@<TRIPOS>SUBSTRUCTURE
1	noname	1
