@<TRIPOS>MOLECULE

87 89
SMALL
USER_CHARGES
@<TRIPOS>ATOM
1	C1    -0.7678    -1.7732    -9.4458	C
2	C2     0.5459    -1.5196    -9.2208	C
3	N1     1.0135    -0.9595    -8.0991	N
4	C3     0.1799    -0.6432    -7.1075	C
5	C4    -1.1458    -0.8598    -7.1850	C
6	C5    -1.7332    -1.4583    -8.3751	C
7	C6    -1.2060    -2.2991   -10.6393	C
8	O1    -2.0502    -3.2518   -10.4750	O
9	N2    -0.6411    -1.6716   -11.7695	N
10	C7     2.4199    -0.7165    -7.9784	C
11	O2     2.7991     0.4110    -7.1502	O
12	C8     3.9953     0.0852    -6.4077	C
13	C9     4.4972    -1.2556    -6.9785	C
14	C10     3.1856    -1.9136    -7.3798	C
15	O3     3.5188    -2.9926    -8.2330	O
16	O4     5.1644    -2.1490    -6.1072	O
17	C11     5.0455     1.2223    -6.3464	C
18	O5     6.2087     0.8163    -6.8667	O
19	P1     7.4239     1.6862    -7.1734	P
20	O6     7.0460     2.6731    -8.2129	O
21	O7     8.5139     0.7363    -7.7133	O
22	O8     7.7964     2.4449    -5.8834	O
23	P2     9.1048     3.1894    -5.6470	P
24	O9    10.2181     2.4120    -6.2387	O
25	O10     9.0369     4.5759    -6.3304	O
26	O11     9.3116     3.2325    -4.1092	O
27	C12     9.6228     2.1834    -3.3391	C
28	C13     9.6230     2.5681    -1.8392	C
29	O12     9.2359     1.9826    -0.5767	O
30	C14     9.7640     2.7909     0.5017	C
31	C15    10.1409     4.1375    -0.1434	C
32	C16    10.6579     3.6575    -1.4916	C
33	O13    10.7538     4.7879    -2.3355	O
34	O14    11.1800     4.8997     0.4463	O
35	N3     8.8291     2.9393     1.5821	N
36	C17     7.8932     3.1247     4.9805	C
37	N4     9.0816     2.9435     5.6198	N
38	C18    10.2467     2.7471     4.9397	C
39	N5    10.2554     2.7269     3.5776	N
40	C19     7.8921     3.1064     3.5741	C
41	N6     6.9084     3.2649     2.6791	N
42	C20     9.0919     2.9026     2.9001	C
43	C21     7.4989     3.1610     1.4730	C
44	N7     6.8010     3.3115     5.6786	N
45	H1     1.1959    -1.7649    -9.9355	H
46	H2     0.5217    -0.2340    -6.2673	H
47	H3    -1.7371    -0.6099    -6.4250	H
48	H4    -2.2481    -2.3724    -8.0616	H
49	H5    -2.4803    -0.7627    -8.7644	H
50	H6    -0.8739    -1.9548   -12.6284	H
51	H7    -0.0298    -0.9743   -11.6477	H
52	H8     2.8493    -0.4852    -8.9623	H
53	H9     3.7138    -0.0600    -5.3597	H
54	H10     5.1364    -1.0905    -7.8547	H
55	H11     2.6567    -2.3031    -6.5030	H
56	H12     2.7446    -3.1900    -8.8022	H
57	H13     5.7988    -1.6339    -5.5628	H
58	H14     4.6573     2.0806    -6.9050	H
59	H15     5.1919     1.5204    -5.3031	H
60	H16     8.2944     0.1442    -8.3273	H
61	H17     8.9917     4.6722    -7.2053	H
62	H18    10.6187     1.8221    -3.6108	H
63	H19     8.9041     1.3722    -3.4945	H
64	H20     8.7422     3.0371    -2.2908	H
65	H21    10.6757     2.2995     0.8623	H
66	H22     9.2553     4.7740    -0.2555	H
67	H23    11.6569     3.2187    -1.3902	H
68	H24    10.7642     4.4730    -3.2653	H
69	H25    11.0425     4.9154     1.4183	H
70	H26    11.1154     2.6145     5.4554	H
71	H27     6.9925     3.2441     0.5902	H
72	H28     6.8421     3.3445     6.6137	H
73	H29     5.9771     3.4123     5.2479	H
74	H30    -6.7443    -2.3634    -5.2040	H	1	noname	1
75	O15    -1.1323    -2.3076    -0.7989	O
76	C22    -1.0166    -1.8313     0.4851	C
77	C23     0.1827    -1.1975     0.7347	C
78	C24     0.6154    -0.6864     2.0427	C
79	C25     0.7622    -1.7179     3.0529	C
80	O16     1.5517    -2.6532     2.8767	O
81	O17    -1.7876    -1.8389     1.5198	O
82	O18     0.1181    -1.6717     4.1046	O
83	O19     0.9751    -1.0245    -0.1864	O
84	H31    -0.4591    -2.1757    -1.3449	H
85	H32     1.5833    -0.1813     1.9595	H
86	H33    -0.0999     0.0701     2.3763	H
87	H34     1.5719    -3.1933     3.5572	H
@<TRIPOS>BOND
1	1	2	2
2	1	6	1
3	2	3	1
4	3	4	1
5	4	5	2
6	5	6	1
7	1	7	1
8	7	8	2
9	7	9	1
10	3	10	1
11	14	10	1
12	11	10	1
13	11	12	1
14	12	13	1
15	13	14	1
16	14	15	1
17	13	16	1
18	12	17	1
19	17	18	1
20	18	19	1
21	19	20	2
22	19	21	1
23	19	22	1
24	22	23	1
25	23	24	2
26	23	25	1
27	23	26	1
28	26	27	1
29	27	28	1
30	32	28	1
31	29	28	1
32	29	30	1
33	30	31	1
34	31	32	1
35	32	33	1
36	31	34	1
37	30	35	1
38	42	35	1
39	35	43	1
40	36	37	2
41	36	40	1
42	37	38	1
43	38	39	2
44	39	42	1
45	42	40	2
46	41	40	1
47	41	43	2
48	36	44	1
49	2	45	1
50	4	46	1
51	5	47	1
52	6	48	1
53	6	49	1
54	9	50	1
55	9	51	1
56	10	52	1
57	12	53	1
58	13	54	1
59	14	55	1
60	15	56	1
61	16	57	1
62	17	58	1
63	17	59	1
64	21	60	1
65	25	61	1
66	27	62	1
67	27	63	1
68	28	64	1
69	30	65	1
70	31	66	1
71	32	67	1
72	33	68	1
73	34	69	1
74	38	70	1
75	43	71	1
76	44	72	1
77	44	73	1
78	75	76	1
79	76	77	1
80	77	78	1
81	78	79	1
82	79	80	1
83	76	81	2
84	79	82	2
85	77	83	2
86	75	84	1
87	78	85	1
88	78	86	1
89	80	87	1
@<TRIPOS>SUBSTRUCTURE
1	noname	1
