@<TRIPOS>MOLECULE

87 90
SMALL
USER_CHARGES
@<TRIPOS>ATOM
1	O1    -0.8742     0.4777     2.5465	O
2	C1    -1.1295     0.8910     1.2745	C
3	C2    -0.5019     0.0417     0.2597	C
4	C3    -1.5533    -0.8069    -0.5165	C
5	C4    -1.0047    -1.4388    -1.6986	C
6	O2    -0.8304    -2.6596    -1.7583	O
7	O3    -1.7882     1.8554     0.7325	O
8	O4    -0.7023    -0.7456    -2.6720	O
9	O5     0.2940     0.8437    -0.6218	O
10	H1    -0.3834    -0.2433     2.6351	H
11	H2     0.1959    -0.6619     0.7271	H
12	H3    -1.9522    -1.5676     0.1624	H
13	H4    -2.3962    -0.1874    -0.8348	H
14	H5    -0.5036    -2.9006    -2.5278	H
15	H6     0.7960     1.4350    -0.0205	H
16	C5     2.0450     6.4971     6.9899	C
17	C6     3.0004     6.3397     6.0394	C
18	N1     2.9647     5.3878     5.0997	N	1	noname	1
19	C7     1.9357     4.5420     5.0382	C
20	C8     0.9065     4.5965     5.9033	C
21	C9     0.8748     5.5984     6.9590	C
22	C10     2.1548     7.4561     7.9701	C
23	O6     1.0616     8.1050     8.1461	O
24	N2     3.4327     7.5053     8.5658	N
25	C11     4.0410     5.3006     4.1587	C
26	O7     4.3227     3.9768     3.6395	O
27	C12     4.6822     4.0711     2.2432	C
28	C13     4.8322     5.5757     1.9441	C
29	C14     3.8132     6.1692     2.9052	C
30	O8     4.0935     7.5542     2.9875	O
31	O9     4.5042     6.0391     0.6479	O
32	C15     5.8800     3.1823     1.8246	C
33	O10     6.8643     3.9302     1.3140	O
34	P1     8.2772     3.4679     0.9715	P
35	O11     8.9479     3.0384     2.2217	O
36	O12     9.0023     4.6916     0.3727	O
37	O13     8.1589     2.2515     0.0310	O
38	P2     9.2985     1.6585    -0.7885	P
39	O14    10.1371     2.7583    -1.3187	O
40	O15    10.1658     0.7535     0.1186	O
41	O16     8.6399     0.9322    -1.9919	O
42	C16     8.0403     1.5327    -3.0263	C
43	C17     7.3839     0.4981    -3.9732	C
44	O17     6.1835     0.3737    -4.7668	O
45	C18     6.3144    -0.7678    -5.6474	C
46	C19     7.4758    -1.5983    -5.0704	C
47	C20     8.3970    -0.4840    -4.5958	C
48	O18     9.3711    -1.0691    -3.7543	O
49	O19     8.2318    -2.4058    -5.9560	O
50	N3     5.0958    -1.5209    -5.7510	N
51	C21     2.6409    -3.3850    -7.4708	C
52	N4     3.1076    -3.3702    -8.7499	N
53	C22     4.2623    -2.7315    -9.0916	C
54	N5     4.9954    -2.0792    -8.1468	N
55	C23     3.3913    -2.7149    -6.4881	C
56	N6     3.2056    -2.5643    -5.1700	N
57	C24     4.5658    -2.0680    -6.8587	C
58	C25     4.2539    -1.8360    -4.7399	C
59	N7     1.5266    -4.0143    -7.1922	N
60	H7     3.7717     6.9710     6.0466	H
61	H8     1.8986     3.8369     4.3371	H
62	H9     0.1563     3.9479     5.8269	H
63	H10     0.2483     5.6669     7.6382	H
64	H11     3.6108     8.1227     9.2434	H
65	H12     4.0975     6.9168     8.2715	H
66	H13     4.9824     5.6110     4.6313	H
67	H14     3.8502     3.6745     1.6522	H
68	H15     5.8452     5.9211     2.1852	H
69	H16     2.7930     6.0341     2.5296	H
70	H17     3.7471     7.8918     3.8409	H
71	H18     4.8860     5.4166    -0.0086	H
72	H19     6.2326     2.6405     2.7085	H
73	H20     5.5442     2.4550     1.0782	H
74	H21     8.9358     5.4676     0.7844	H
75	H22    10.6421     1.0701     0.7890	H
76	H23     8.7839     2.1041    -3.5891	H
77	H24     7.2688     2.2227    -2.6693	H
78	H25     7.1586     0.1838    -2.9484	H
79	H26     6.6029    -0.3874    -6.6347	H
80	H27     7.1301    -2.2179    -4.2345	H
81	H28     8.9109    -0.0178    -5.4442	H
82	H29     9.7556    -0.3593    -3.1955	H
83	H30     7.6116    -2.8895    -6.5439	H
84	H31     4.5773    -2.7431   -10.0606	H
85	H32     4.3866    -1.5635    -3.7648	H
86	H33     1.0660    -4.4729    -7.8666	H
87	H34     1.1866    -4.0086    -6.3212	H
@<TRIPOS>BOND
1	1	2	1
2	2	3	1
3	3	4	1
4	4	5	1
5	5	6	1
6	2	7	2
7	5	8	2
8	3	9	1
9	1	10	1
10	3	11	1
11	4	12	1
12	4	13	1
13	6	14	1
14	9	15	1
15	16	17	1
16	16	21	2
17	17	18	2
18	18	19	1
19	19	20	2
20	20	21	1
21	16	22	1
22	22	23	2
23	22	24	1
24	18	25	1
25	29	25	1
26	26	25	1
27	26	27	1
28	27	28	1
29	28	29	1
30	29	30	1
31	28	31	1
32	27	32	1
33	32	33	1
34	33	34	1
35	34	35	2
36	34	36	1
37	34	37	1
38	37	38	1
39	38	39	2
40	38	40	1
41	38	41	1
42	41	42	1
43	42	43	1
44	47	43	1
45	44	43	1
46	44	45	1
47	45	46	1
48	46	47	1
49	47	48	1
50	46	49	1
51	45	50	1
52	57	50	1
53	50	58	1
54	51	52	2
55	51	55	1
56	52	53	1
57	53	54	2
58	54	57	1
59	57	55	2
60	56	55	1
61	56	58	2
62	51	59	1
63	17	60	1
64	19	61	1
65	20	62	1
66	21	63	1
67	24	64	1
68	24	65	1
69	25	66	1
70	27	67	1
71	28	68	1
72	29	69	1
73	30	70	1
74	31	71	1
75	32	72	1
76	32	73	1
77	36	74	1
78	40	75	1
79	42	76	1
80	42	77	1
81	43	78	1
82	45	79	1
83	46	80	1
84	47	81	1
85	48	82	1
86	49	83	1
87	53	84	1
88	58	85	1
89	59	86	1
90	59	87	1
@<TRIPOS>SUBSTRUCTURE
1	noname	1
