@<TRIPOS>MOLECULE

16 14
SMALL
USER_CHARGES
@<TRIPOS>ATOM
1	O1    -2.1013    -1.5140     3.8743	O
2	H1    -2.2165    -2.5311     4.2268	H
3	H2    -1.1864    -1.2421     4.0955	H
4	O2     3.3261     1.6354    -0.2340	O
5	C1     2.1201     1.0452    -0.4834	C
6	C2     1.6053     0.3191     0.5988	C
7	C3     0.4203    -0.3337     0.5366	C
8	O3     2.0835     0.1312     1.7554	O
9	O4     1.3523     1.0235    -1.5295	O
10	P1     3.2199     0.3855     2.7469	P
11	O5     4.3483     1.2139     2.2880	O
12	O6     3.7580    -0.9678     3.1697	O	1	noname	-1
13	O7     2.6095     1.0405     3.9709	O	1	noname	-1
14	H3     3.6412     1.5025     0.5508	H
15	H4     0.0586    -0.8489     1.3096	H
16	H5    -0.1474    -0.3336    -0.2774	H
@<TRIPOS>BOND
1	1	2	1
2	1	3	1
3	4	5	1
4	5	6	1
5	6	7	2
6	6	8	1
7	5	9	2
8	8	10	1
9	10	11	2
10	10	12	1
11	10	13	1
12	4	14	1
13	7	15	1
14	7	16	1
@<TRIPOS>SUBSTRUCTURE
1	noname	1
