@<TRIPOS>MOLECULE

16 15
SMALL
USER_CHARGES
@<TRIPOS>ATOM
1	O1     0.2564    -2.6014    -2.4463	O
2	C1    -0.2978    -2.2558    -1.2497	C
3	C2    -0.6076    -0.8234    -1.1585	C
4	C3    -2.1354    -0.5751    -1.0242	C
5	O2    -2.4306     0.8183    -1.0614	O
6	O3     0.0080    -0.2449    -0.1091	O
7	O4    -0.6141    -2.8769    -0.1664	O
8	P1     1.4792     0.1160     0.0722	P
9	O5     2.2887    -0.3331    -1.0781	O
10	O6     1.9818    -0.5431     1.3360	O	1	noname	-1
11	O7     1.5952     1.6148     0.2215	O	1	noname	-1
12	H1     0.3775    -1.9570    -3.0303	H
13	H2    -0.3018    -0.3001    -2.0739	H
14	H3    -2.5151    -0.9763    -0.0818	H
15	H4    -2.6728    -1.0568    -1.8442	H
16	H5    -2.1208     1.1211    -1.9416	H
@<TRIPOS>BOND
1	1	2	1
2	2	3	1
3	3	4	1
4	4	5	1
5	3	6	1
6	2	7	2
7	6	8	1
8	8	9	2
9	8	10	1
10	8	11	1
11	1	12	1
12	3	13	1
13	4	14	1
14	4	15	1
15	5	16	1
@<TRIPOS>SUBSTRUCTURE
1	noname	1
