@<TRIPOS>MOLECULE

53 54
SMALL
USER_CHARGES
@<TRIPOS>ATOM
1	N1     6.9724     2.6687    -1.3449	N
2	H1     7.7679     2.4677    -0.7357	H
3	H2     6.2740     1.9363    -1.1806	H
4	N2     8.1154     2.0675    -5.1245	N
5	C1     8.6387     3.0156    -4.4223	C
6	H3     9.3325     3.5977    -4.8312	H
7	N3     8.2824     3.2323    -3.1865	N
8	C2     7.3902     2.5035    -2.6323	C
9	C3     7.2222     1.3261    -4.5889	C
10	C4     6.8575     1.5468    -3.3468	C
11	N4     5.9495     0.7302    -2.9833	N
12	C5     5.6950    -0.0374    -3.9744	C
13	H4     5.0198    -0.7555    -3.9721	H
14	N5     6.4716     0.2651    -5.0417	N
15	C6     4.4888    -3.2504    -5.3576	C
16	H5     3.4080    -3.1288    -5.4097	H
17	H6     4.8333    -2.9751    -4.3573	H
18	O1     7.2538    -3.6074    -6.7706	O
19	H7     6.8157    -4.3469    -6.3089	H
20	O2     6.8864    -1.4043    -8.3370	O
21	H8     7.0990    -0.5435    -8.7521	H
22	C7     7.1223    -1.1937    -6.9563	C
23	H9     8.1617    -0.9275    -6.7745	H
24	C8     6.6888    -2.4205    -6.2221	C
25	H10     6.9244    -2.2907    -5.1696	H
26	C9     5.1830    -2.3401    -6.4061	C
27	H11     4.9184    -2.6645    -7.4144	H
28	C10     6.1292    -0.1795    -6.3980	C
29	H12     6.0611     0.7200    -7.0160	H
30	O3     4.8586    -0.9140    -6.3111	O
31	O4     4.8003    -4.6223    -5.6111	O
32	O5     4.2035    -6.9622    -4.8660	O	1	noname	-1
33	O6     4.4703    -5.1691    -3.2465	O
34	P1     3.9996    -5.4580    -4.5768	P
35	O7     2.4942    -5.1108    -4.6818	O
36	O8     2.2682    -5.8214    -2.3522	O
37	O9     2.0343    -7.4961    -4.1091	O	1	noname	-1
38	P2     1.7683    -6.0443    -3.6855	P
39	O10     0.2465    -5.7701    -3.7198	O
40	O11     0.1333    -6.4226    -1.3725	O
41	O12    -0.1176    -8.1938    -3.0201	O	1	noname	-1
42	P3    -0.4037    -6.7148    -2.6757	P
43	O13    -1.9292    -6.4733    -2.6648	O	1	noname	-1
44	O14     5.1226    -2.2043     1.9299	O
45	C11     3.8664    -2.7466     2.0465	C
46	C12     3.0468    -2.0367     2.8997	C
47	C13     1.6671    -2.3953     3.2010	C
48	O15     3.4636    -1.0311     3.4642	O
49	O16     3.2783    -3.7760     1.5346	O
50	H13     5.2950    -1.4785     2.3897	H
51	H14     1.6341    -3.3901     3.6466	H
52	H15     1.0776    -2.3942     2.2834	H
53	H16     1.1976    -1.6986     3.9016	H
@<TRIPOS>BOND
1	1	2	1
2	1	3	1
3	1	8	1
4	4	5	2
5	4	9	1
6	5	6	1
7	5	7	1
8	7	8	2
9	8	10	1
10	9	10	2
11	9	14	1
12	10	11	1
13	11	12	2
14	12	13	1
15	12	14	1
16	14	28	1
17	15	16	1
18	15	17	1
19	15	26	1
20	15	31	1
21	18	19	1
22	18	24	1
23	20	21	1
24	20	22	1
25	22	23	1
26	22	24	1
27	22	28	1
28	24	25	1
29	24	26	1
30	26	27	1
31	26	30	1
32	28	29	1
33	28	30	1
34	31	34	1
35	32	34	1
36	33	34	2
37	34	35	1
38	35	38	1
39	36	38	2
40	37	38	1
41	38	39	1
42	39	42	1
43	40	42	2
44	41	42	1
45	42	43	1
46	44	45	1
47	45	46	1
48	46	47	1
49	46	48	2
50	45	49	2
51	44	50	1
52	47	51	1
53	47	52	1
54	47	53	1
@<TRIPOS>SUBSTRUCTURE
1	noname	1
