@<TRIPOS>MOLECULE

52 53
SMALL
USER_CHARGES
@<TRIPOS>ATOM
1	N1     5.5485     4.3675    -2.2518	N
2	H1     6.5578     4.2452    -2.1490	H
3	H2     5.1428     3.4344    -2.3780	H
4	N2     4.8640     6.1859    -5.7416	N
5	C1     5.4889     6.7982    -4.7926	C
6	H3     5.8008     7.7304    -4.9378	H
7	N3     5.7244     6.2264    -3.6443	N
8	C2     5.3334     5.0293    -3.4245	C
9	C3     4.4655     4.9876    -5.5429	C
10	C4     4.6960     4.4124    -4.3851	C
11	N4     4.2163     3.2324    -4.3555	N
12	C5     3.6585     3.0091    -5.4848	C
13	H4     3.1945     2.1744    -5.7288	H
14	N5     3.7796     4.0748    -6.3114	N
15	C6     2.5007     0.6881    -8.1237	C
16	H5     1.5190     0.3642    -7.7815	H
17	H6     3.2232     0.5623    -7.3131	H
18	O1     4.2932     2.2240   -10.1725	O
19	H7     4.2541     1.2492   -10.1566	H
20	O2     2.8702     4.5339    -9.8863	O
21	H8     2.7155     5.4878    -9.7299	H
22	C7     3.6882     4.1306    -8.8025	C
23	H9     4.6300     4.6757    -8.8008	H
24	C8     3.8626     2.6489    -8.8830	C
25	H10     4.5396     2.3405    -8.0914	H
26	C9     2.4575     2.1822    -8.5429	C
27	H11     1.8087     2.3067    -9.4120	H
28	C10     2.9200     4.2414    -7.4894	C
29	H12     2.4202     5.2077    -7.3800	H
30	O3     1.9824     3.1092    -7.5118	O
31	O4     2.8811    -0.1260    -9.2354	O
32	O5     3.1053    -2.5427    -9.9395	O	1	noname	-1
33	O6     3.7975    -1.8213    -7.7237	O
34	P1     2.8128    -1.5991    -8.7512	P
35	O7     1.4005    -1.8968    -8.1902	O
36	O8     2.4181    -3.6596    -6.8336	O
37	O9     1.6701    -4.2097    -9.0884	O	1	noname	-1
38	P2     1.3956    -3.3968    -7.8149	P
39	O10    -0.0071    -3.7996    -7.1914	O	1	noname	-1
40	O11     5.8769    -1.6800    -2.2245	O
41	C11     5.6387    -3.0147    -2.0608	C
42	C12     5.4887    -3.4080    -0.7243	C
43	C13     5.2473    -4.6922    -0.3686	C
44	O12     5.5402    -2.7217     0.3378	O
45	O13     5.5232    -3.9960    -2.9021	O
46	P3     5.7338    -1.3517     0.9896	P
47	O14     5.9848    -0.2057     0.0988	O
48	O15     6.8974    -1.4742     1.9545	O	1	noname	-1
49	O16     4.4885    -1.0626     1.8053	O	1	noname	-1
50	H13     5.9098    -1.2244    -1.5005	H
51	H14     5.1414    -4.9668     0.5839	H
52	H15     5.1635    -5.4239    -1.0339	H
@<TRIPOS>BOND
1	1	2	1
2	1	3	1
3	1	8	1
4	4	5	2
5	4	9	1
6	5	6	1
7	5	7	1
8	7	8	2
9	8	10	1
10	9	10	2
11	9	14	1
12	10	11	1
13	11	12	2
14	12	13	1
15	12	14	1
16	14	28	1
17	15	16	1
18	15	17	1
19	15	26	1
20	15	31	1
21	18	19	1
22	18	24	1
23	20	21	1
24	20	22	1
25	22	23	1
26	22	24	1
27	22	28	1
28	24	25	1
29	24	26	1
30	26	27	1
31	26	30	1
32	28	29	1
33	28	30	1
34	31	34	1
35	32	34	1
36	33	34	2
37	34	35	1
38	35	38	1
39	36	38	2
40	37	38	1
41	38	39	1
42	40	41	1
43	41	42	1
44	42	43	2
45	42	44	1
46	41	45	2
47	44	46	1
48	46	47	2
49	46	48	1
50	46	49	1
51	40	50	1
52	43	51	1
53	43	52	1
@<TRIPOS>SUBSTRUCTURE
1	noname	1
