@<TRIPOS>MOLECULE

86 91
SMALL
NO_CHARGES
@<TRIPOS>ATOM
1	C1    -0.4839     1.7592    -2.8860	C
2	O1     0.2103     0.8090    -3.5143	O
3	P1     0.3941     0.5966    -5.0391	P
4	O2    -0.5765     1.4362    -5.7800	O
5	O3     0.2416    -0.8791    -5.4946	O
6	O4     1.8054     1.0370    -5.4174	O
7	P2     2.5220     2.3363    -5.0615	P
8	O5     1.6323     3.4853    -5.3493	O
9	O6     2.8745     2.3058    -3.5557	O
10	O7     3.7471     2.4341    -6.0089	O
11	C2     3.7026     2.3683    -7.3440	C
12	C3     5.1286     2.4441    -7.9378	C
13	O8     5.9209     1.3021    -7.5421	O
14	C4     6.5510     0.7426    -8.7145	C
15	C5     6.5084     1.8655    -9.7643	C
16	C6     5.1342     2.4483    -9.4820	C
17	O9     5.0619     3.6905   -10.1564	O
18	O10     6.5412     1.5063   -11.1324	O
19	N1     7.8895     0.2900    -8.4742	N
20	C7    10.6694    -1.7932    -9.0713	C
21	N2    10.1890    -2.6604   -10.0063	N
22	C8     8.9095    -2.5854   -10.4732	C
23	N3     8.0646    -1.6230   -10.0114	N
24	C9     9.8014    -0.8011    -8.5834	C
25	N4     9.9754     0.1768    -7.6826	N
26	C10     8.5040    -0.7411    -9.0773	C
27	C11     8.7985     0.8319    -7.6318	C
28	N5    11.9064    -1.8876    -8.6557	N
29	H1    -1.5329     1.7389    -3.2004	H
30	H2    -0.0719     2.7462    -3.1165	H
31	H3     0.3658    -1.1225    -6.3296	H
32	H4     2.2562     2.2033    -2.9401	H
33	H5     3.1119     3.2013    -7.7366	H
34	H6     3.2403     1.4279    -7.6620	H
35	H7     5.6250     3.3486    -7.5698	H
36	H8     5.9333    -0.0988    -9.0492	H
37	H9     7.2976     2.6012    -9.5711	H
38	H10     4.3467     1.7943    -9.8752	H
39	H11     4.3681     4.2313    -9.7217	H
40	H12     7.2396     0.8277   -11.2511	H
41	H13     8.5837    -3.2515   -11.1734	H
42	H14     8.6289     1.6416    -7.0304	H
43	H15    12.2325    -1.2871    -8.0167	H
44	H16    12.4677    -2.5529    -8.9986	H
45	C12    -0.3915     1.5232    -1.3607	C
46	C13    -0.9471     0.1405    -0.8993	C
47	C14    -0.8579    -0.1328     0.6340	C
48	C15     0.5912    -0.2409     1.2006	C
49	O11    -1.1483     2.5423    -0.7244	O
50	O12    -2.3204     0.1071    -1.2937	O
51	O13    -1.5472    -1.3560     0.8882	O
52	C16     0.6763    -1.4481     4.7597	C
53	N6     0.6621    -0.2764     5.4280	N
54	C17     0.6136     0.9189     4.8021	C
55	C18     0.5647     0.9715     3.3814	C
56	N7     0.6106    -0.2235     2.6637	N
57	C19     0.6634    -1.4308     3.3396	C
58	N8     0.6850    -2.6395     2.7012	N
59	C20     0.7065    -3.8344     3.3385	C
60	N9     0.7032    -3.8245     4.7018	N
61	C21     0.6915    -2.6797     5.4457	C
62	C22     0.6079     2.0796     5.5948	C
63	C23     0.5364     3.3603     5.0063	C
64	C24     0.4576     3.4575     3.5886	C
65	C25     0.4689     2.2708     2.8106	C
66	C26     0.3685     4.7795     2.9057	C
67	C27     0.5387     4.5642     5.8820	C
68	O14     0.7216    -4.8999     2.6612	O
69	O15     0.6868    -2.7249     6.7097	O
70	H17     0.6548     1.6271    -1.0731	H
71	H18    -0.4199    -0.6601    -1.4286	H
72	H19    -1.4051     0.6485     1.1644	H
73	H20     1.0386    -1.1452     0.7822	H
74	H21     1.2389     0.5473     0.8210	H
75	H22    -0.6266     3.3709    -0.7849	H
76	H23    -2.6202    -0.8270    -1.2743	H
77	H24    -1.2517    -1.6879     1.7603	H
78	H25     0.7082    -4.6605     5.1628	H
79	H26     0.6563     1.9845     6.6138	H
80	H27     0.4015     2.3688     1.7976	H
81	H28     1.2677     5.3633     3.1083	H
82	H29     0.2705     4.6913     1.8219	H
83	H30    -0.4996     5.3305     3.2700	H
84	H31     1.3754     5.2134     5.6220	H
85	H32     0.6317     4.3137     6.9402	H
86	H33    -0.3921     5.1174     5.7534	H
@<TRIPOS>BOND
1	1	2	1
2	2	3	1
3	3	4	2
4	3	5	1
5	3	6	1
6	6	7	1
7	7	8	2
8	7	9	1
9	7	10	1
10	10	11	1
11	11	12	1
12	16	12	1
13	13	12	1
14	13	14	1
15	14	15	1
16	15	16	1
17	16	17	1
18	15	18	1
19	14	19	1
20	26	19	1
21	19	27	1
22	20	21	2
23	20	24	1
24	21	22	1
25	22	23	2
26	23	26	1
27	26	24	2
28	25	24	1
29	25	27	2
30	20	28	1
31	1	29	1
32	1	30	1
33	5	31	1
34	9	32	1
35	11	33	1
36	11	34	1
37	12	35	1
38	14	36	1
39	15	37	1
40	16	38	1
41	17	39	1
42	18	40	1
43	22	41	1
44	27	42	1
45	28	43	1
46	28	44	1
47	1	45	1
48	45	46	1
49	46	47	1
50	47	48	1
51	45	49	1
52	46	50	1
53	47	51	1
54	52	53	2
55	53	54	1
56	55	56	1
57	56	57	1
58	58	59	1
59	59	60	1
60	60	61	1
61	52	57	1
62	52	61	1
63	57	58	2
64	62	54	2
65	54	55	1
66	65	55	2
67	62	63	1
68	63	64	2
69	64	65	1
70	64	66	1
71	63	67	1
72	59	68	2
73	61	69	2
74	48	56	1
75	45	70	1
76	46	71	1
77	47	72	1
78	48	73	1
79	48	74	1
80	49	75	1
81	50	76	1
82	51	77	1
83	60	78	1
84	62	79	1
85	65	80	1
86	66	81	1
87	66	82	1
88	66	83	1
89	67	84	1
90	67	85	1
91	67	86	1
@<TRIPOS>SUBSTRUCTURE
1	noname	1
