@<TRIPOS>MOLECULE
line1
44 46
SMALL
USER_CHARGES
@<TRIPOS>ATOM
1	N1    18.8754     5.6781    -3.8703	N
2	C1    19.5576     6.4922    -3.1094	C
3	N2    20.8452     6.7990    -3.4292	N
4	C2    21.5545     7.6384    -2.6285	C
5	C3    20.9811     8.1910    -1.4899	C
6	N3    21.8813     8.9723    -0.8830	N
7	C4    22.9980     8.9093    -1.6347	C
8	N4    22.8152     8.1020    -2.7094	N
9	C5    23.7808     7.7794    -3.7316	C
10	O1    25.1034     8.3014    -3.4787	O
11	C6    25.5673     8.9302    -4.6757	C
12	C7    26.5232    10.0877    -4.3474	C
13	O2    27.6986     9.5964    -3.7173	O
14	C8    24.3119     9.4255    -5.3925	C
15	O3    24.5040     9.6710    -6.6907	O
16	C9    23.3310     8.2850    -5.1138	C
17	O4    23.4140     7.2207    -6.0604	O
18	C10    19.6537     7.8731    -1.1670	C
19	O5    19.0976     8.3456    -0.1513	O
20	N5    18.9799     7.0271    -1.9948	N
21	P1    28.3728    11.0154    -3.0525	P
22	O6    28.8927    11.3150    -1.5803	O
23	P2    30.3930    11.8243    -1.4400	P
24	O7    30.6320    12.0498     0.1176	O
25	P3    32.0731    12.5663     0.5372	P
26	O8    32.1139    12.6927     2.1077	O	1	noname	-1
27	O9    33.1890    11.5230     0.1474	O
28	O10    32.3952    13.9646    -0.1166	O	1	noname	-1
29	O11    31.3899    10.7350    -1.9948	O
30	O12    30.5336    13.1589    -2.2435	O	1	noname	-1
31	O13    29.1969     9.8434    -3.7106	O
32	O14    28.4472    12.3102    -3.9500	O	1	noname	-1
33	H1    17.9413     5.9252    -4.1645	H
34	H2    19.2822     4.8017    -4.1645	H
35	H3    23.9226     9.4390    -1.4049	H
36	H4    23.8554     6.6953    -3.6456	H
37	H5    26.1176     8.1918    -5.2587	H
38	H6    26.8633    10.5194    -5.2888	H
39	H7    26.0417    10.7192    -3.6007	H
40	H8    23.9723    10.4375    -5.1721	H
41	H9    24.5744     8.8401    -7.1664	H
42	H10    22.2875     8.5810    -5.2218	H
43	H11    23.4793     6.3833    -5.5956	H
44	H12    18.0231     6.7891    -1.7756	H
@<TRIPOS>BOND
1	1	2	1
2	2	3	2
3	2	20	1
4	3	4	1
5	4	5	2
6	4	8	1
7	5	6	1
8	5	18	1
9	6	7	2
10	7	8	1
11	8	9	1
12	9	10	1
13	9	16	1
14	10	11	1
15	11	12	1
16	11	14	1
17	12	13	1
18	14	15	1
19	14	16	1
20	16	17	1
21	18	19	2
22	18	20	1
23	21	22	1
24	21	31	2
25	21	32	1
26	22	23	1
27	23	24	1
28	23	29	2
29	23	30	1
30	24	25	1
31	25	26	1
32	25	27	2
33	25	28	1
34	21	13	1
35	1	33	1
36	1	34	1
37	7	35	1
38	9	36	1
39	11	37	1
40	12	38	1
41	12	39	1
42	14	40	1
43	15	41	1
44	16	42	1
45	17	43	1
46	20	44	1
@<TRIPOS>SUBSTRUCTURE
1	noname	1
