@<TRIPOS>MOLECULE

72 76
SMALL
USER_CHARGES
@<TRIPOS>ATOM
1	C1     5.8579     4.9727    -5.3775	C
2	C2     5.0844     5.0606    -4.2661	C
3	N1     4.2641     4.0878    -3.8524	N	1	noname	1
4	C3     4.1927     2.9378    -4.5235	C
5	C4     4.9205     2.7043    -5.6309	C
6	C5     5.8307     3.7153    -6.1494	C
7	C6     6.6433     6.0228    -5.7935	C
8	O1     7.8265     5.6500    -6.1228	O
9	N2     5.9747     7.2649    -5.7750	N
10	C7     3.4756     4.2984    -2.6753	C
11	O2     2.2050     3.6022    -2.6311	O
12	C8     1.9488     3.1480    -1.2834	C
13	C9     3.0386     3.7920    -0.4041	C
14	C10     4.1999     3.8678    -1.3839	C
15	O3     5.1488     4.7530    -0.8187	O
16	O4     3.4942     3.0796     0.7306	O
17	C11     0.4911     3.3525    -0.8006	C
18	O5     0.4621     4.1179     0.2957	O
19	P1    -0.7755     4.7129     0.9603	P
20	O6    -1.4114     5.6573     0.0110	O
21	O7    -0.2772     5.4696     2.2097	O
22	O8    -1.7585     3.5585     1.2423	O
23	P2    -2.9790     3.6440     2.1506	P
24	O9    -2.6415     4.4599     3.3398	O
25	O10    -4.1412     4.3211     1.3860	O
26	O11    -3.2714     2.1960     2.6275	O
27	C12    -2.5225     1.4971     3.4883	C
28	C13    -3.0411     0.0454     3.6341	C
29	O12    -2.4955    -1.2837     3.7833	O
30	C14    -3.5613    -2.1956     4.1409	C
31	C15    -4.8665    -1.4543     3.7963	C
32	C16    -4.4812    -0.0333     4.1805	C
33	O13    -5.4563     0.8325     3.6338	O
34	O14    -6.0366    -1.7740     4.5289	O
35	N3    -3.4496    -3.4586     3.4660	N
36	C17    -3.6301    -6.9767     3.2429	C
37	N4    -4.0037    -7.3293     4.5039	N
38	C18    -4.2069    -6.4039     5.4840	C
39	N5    -4.0398    -5.0769     5.2251	N
40	C19    -3.4560    -5.6089     2.9657	C
41	N6    -3.1136    -4.9608     1.8446	N
42	C20    -3.6667    -4.6814     3.9809	C
43	C21    -3.1164    -3.6537     2.1694	C
44	N7    -3.4488    -7.9032     2.3352	N
45	H1     5.1324     5.9005    -3.7315	H
46	H2     3.5910     2.2070    -4.2169	H
47	H3     4.8402     1.8340    -6.1059	H
48	H4     6.3149     3.6716    -6.9382	H
49	H5     6.4206     8.0415    -6.0399	H
50	H6     5.0843     7.3008    -5.4911	H
51	H7     3.2055     5.3590    -2.5860	H
52	H8     2.0751     2.0607    -1.2632	H
53	H9     2.7343     4.7947    -0.0794	H
54	H10     4.6655     2.8854    -1.5188	H
55	H11     5.6970     5.1251    -1.5422	H
56	H12     2.7138     2.7059     1.1947	H
57	H13    -0.0770     3.8240    -1.6095	H
58	H14     0.0450     2.3769    -0.5814	H
59	H15     0.4181     6.0049     2.1322	H
60	H16    -4.1137     5.1639     1.1297	H
61	H17    -2.5542     1.9830     4.4676	H
62	H18    -1.4821     1.4669     3.1485	H
63	H19    -3.0722     0.2918     2.5672	H
64	H20    -3.5118    -2.3468     5.2259	H
65	H21    -5.0863    -1.5360     2.7253	H
66	H22    -4.4851     0.0888     5.2695	H
67	H23    -5.0692     1.7334     3.5841	H
68	H24    -6.1053    -2.7512     4.5963	H
69	H25    -4.4852    -6.7088     6.4156	H
70	H26    -2.8945    -2.9093     1.5065	H
71	H27    -3.5996    -8.8030     2.5471	H
72	H28    -3.1686    -7.6713     1.4737	H
@<TRIPOS>BOND
1	1	2	1
2	1	6	2
3	2	3	2
4	3	4	1
5	4	5	2
6	5	6	1
7	1	7	1
8	7	8	2
9	7	9	1
10	3	10	1
11	14	10	1
12	11	10	1
13	11	12	1
14	12	13	1
15	13	14	1
16	14	15	1
17	13	16	1
18	12	17	1
19	17	18	1
20	18	19	1
21	19	20	2
22	19	21	1
23	19	22	1
24	22	23	1
25	23	24	2
26	23	25	1
27	23	26	1
28	26	27	1
29	27	28	1
30	32	28	1
31	29	28	1
32	29	30	1
33	30	31	1
34	31	32	1
35	32	33	1
36	31	34	1
37	30	35	1
38	42	35	1
39	35	43	1
40	36	37	2
41	36	40	1
42	37	38	1
43	38	39	2
44	39	42	1
45	42	40	2
46	41	40	1
47	41	43	2
48	36	44	1
49	2	45	1
50	4	46	1
51	5	47	1
52	6	48	1
53	9	49	1
54	9	50	1
55	10	51	1
56	12	52	1
57	13	53	1
58	14	54	1
59	15	55	1
60	16	56	1
61	17	57	1
62	17	58	1
63	21	59	1
64	25	60	1
65	27	61	1
66	27	62	1
67	28	63	1
68	30	64	1
69	31	65	1
70	32	66	1
71	33	67	1
72	34	68	1
73	38	69	1
74	43	70	1
75	44	71	1
76	44	72	1
@<TRIPOS>SUBSTRUCTURE
1	noname	1
